26
H17 C8 N1
C 0.999164 0.153510 0.017886
C 2.517796 0.023971 -0.103827
C 2.969915 -1.401708 -0.447070
C 2.649211 -1.782735 -1.895058
C 3.182969 -0.706766 -2.841382
N 2.703509 0.619379 -2.494714
C 3.088307 0.992283 -1.144069
C 3.101243 1.610522 -3.466335
C 3.201487 -3.157321 -2.255982
H 0.594972 -0.572545 0.741212
H 0.499982 -0.014107 -0.948242
H 0.718677 1.161760 0.362521
H 2.959515 0.296735 0.869376
H 2.514316 -2.127475 0.247620
H 4.064029 -1.472244 -0.304940
H 1.552133 -1.809789 -2.015408
H 2.874178 -0.934153 -3.875195
H 4.300681 -0.741404 -2.828697
H 2.725341 2.014032 -0.945273
H 4.199632 1.021780 -1.044460
H 2.742626 1.328330 -4.468706
H 4.206081 1.739224 -3.528289
H 2.665553 2.589773 -3.213425
H 4.300126 -3.180916 -2.160427
H 2.948685 -3.434069 -3.292073
H 2.792740 -3.934807 -1.591495