14
H8 C5 O1
C -0.271712 0.845240 0.098743
C -0.687167 -0.572191 -0.187415
C 0.759589 -0.244153 0.064588
C 1.413535 -0.704879 1.331606
C 1.962624 0.229537 2.316498
O 0.731774 -0.437030 2.542881
H -0.532770 1.251952 1.079836
H -0.282766 1.567777 -0.721039
H -0.987053 -0.833382 -1.205640
H -1.226392 -1.105735 0.601006
H 1.426766 -0.273478 -0.802830
H 1.856855 -1.709325 1.280749
H 1.887414 1.308382 2.129845
H 2.794324 -0.080423 2.960931