19
H12 C6 O1
C 0.987870 0.013850 0.190017
C 2.508919 -0.062174 0.061106
C 3.007099 -1.476180 -0.281751
C 2.684004 -1.840624 -1.732355
C 3.154078 -0.736089 -2.671303
O 2.638361 0.523507 -2.305661
C 3.027137 0.906089 -1.006654
H 0.612544 -0.718485 0.922248
H 0.492414 -0.184394 -0.772626
H 0.671576 1.015283 0.523088
H 2.954768 0.243253 1.022951
H 2.576470 -2.216059 0.412348
H 4.102108 -1.509392 -0.141945
H 1.598304 -1.985241 -1.859433
H 3.167847 -2.789663 -2.013601
H 2.826644 -0.926564 -3.704360
H 4.264308 -0.700044 -2.674295
H 2.630038 1.919888 -0.843037
H 4.134010 0.965470 -0.946590