14
H8 C5 O1
C -2.232849 -0.105402 0.075577
C -0.908386 0.009029 -0.019656
C -0.096009 1.274729 -0.165022
C 1.297884 0.792581 0.235804
O 1.357306 -0.546517 -0.211570
C 0.094771 -1.129671 0.024525
H -2.883665 0.773898 0.055655
H -2.712617 -1.084269 0.176947
H -0.471891 2.103844 0.450569
H -0.095214 1.601673 -1.218355
H 1.425380 0.846542 1.335869
H 2.117349 1.354060 -0.234071
H 0.062606 -1.625151 1.015969
H -0.092856 -1.898836 -0.740983