25
P1 H14 C6 N3 O1
C 1.283620 -0.492863 -0.613361
N 2.661050 -0.459442 -0.156551
C 2.859123 0.250530 1.096631
P 3.732815 -1.715841 -0.425909
O 5.171100 -1.328161 -0.388367
N 3.447264 -2.808258 0.830952
C 2.718876 -4.047827 0.978133
C 4.193537 -3.990370 1.182696
N 3.276136 -2.257673 -1.951744
C 3.611159 -3.560252 -2.497749
C 2.196491 -3.126641 -2.379968
H 0.864102 0.523121 -0.546223
H 0.640650 -1.161863 -0.008779
H 1.225370 -0.799878 -1.664710
H 2.533594 1.297439 0.985763
H 3.925979 0.255359 1.359199
H 2.295559 -0.201134 1.935233
H 2.357448 -4.566518 0.084675
H 2.049236 -4.106488 1.843163
H 4.831490 -4.448897 0.418346
H 4.602475 -4.012302 2.198956
H 3.964754 -4.336265 -1.809334
H 4.104780 -3.550430 -3.474901
H 1.565309 -3.598441 -1.621190
H 1.660735 -2.787173 -3.272592