19
H12 C6 O1
C 2.417315 0.116994 -0.102604
C 0.965765 0.121674 0.331538
C 0.188637 1.334654 -0.182138
C -1.291085 1.234047 0.188293
C -1.849329 -0.120072 -0.246855
C -0.960774 -1.242724 0.272996
O 0.378391 -1.082330 -0.130627
H 2.934923 1.014187 0.268205
H 2.489730 0.102450 -1.201655
H 2.935158 -0.770933 0.289827
H 0.920731 0.131330 1.442454
H 0.297677 1.377172 -1.280438
H 0.635126 2.255308 0.226609
H -1.862578 2.059014 -0.265280
H -1.399092 1.336461 1.283004
H -1.881173 -0.173718 -1.348728
H -2.878686 -0.264152 0.118464
H -1.291989 -2.220113 -0.109145
H -1.020908 -1.281000 1.381330