11
H6 C3 O2
C 0.742376 -0.966356 -0.222977
C -0.736435 -1.005022 0.195776
O -1.082258 0.362371 0.345786
C 0.022434 1.118644 -0.068775
O 1.147372 0.331883 0.156172
H 0.850961 -1.106727 -1.314883
H 1.366631 -1.706620 0.294356
H -0.885188 -1.521397 1.157640
H -1.366660 -1.493441 -0.565701
H 0.091546 2.041204 0.527194
H -0.068028 1.377512 -1.147898