17
H10 C6 O1
C -1.049120 0.547530 1.020314
C -1.657956 -0.529441 -0.071624
C -0.175451 -0.626103 -0.624041
C 0.041991 0.866020 -0.961912
C 0.438320 0.969557 0.474946
C 1.645953 -0.128744 0.321542
O 1.261038 -1.055808 -0.795621
H -1.017449 0.049726 2.003199
H -1.669972 1.456130 1.112137
H -2.429403 -0.121607 -0.744605
H -2.032729 -1.423983 0.443197
H -0.021453 -0.886814 0.418431
H 0.833372 1.005594 -1.709254
H -0.860137 1.424012 -1.247301
H 0.790331 1.920819 0.915134
H 1.798096 -0.729795 1.234321
H 2.590528 0.367068 0.041936