14
H8 C4 S1 O1
C -0.795558 -1.036377 -0.194438
C -1.199369 0.385767 0.190381
C 0.038013 1.182434 -0.224445
O 1.120988 0.342916 0.028676
C 0.709707 -1.022998 0.077708
S -0.011778 1.791736 -1.975976
H -1.001578 -1.226107 -1.259411
H -1.319120 -1.806110 0.388309
H -1.314265 0.468297 1.283290
H -2.124135 0.738684 -0.282842
H 0.163281 2.112757 0.349573
H 0.945543 -1.418394 1.080250
H 1.281579 -1.606567 -0.661190
H -0.337460 0.612771 -2.549083