20
H12 C6 O2
C 1.099885 -0.003043 -0.155981
O 2.473754 0.102234 0.082065
C 2.917158 -0.484888 1.281085
C 4.348479 -0.028380 1.527850
C 4.928556 -0.716644 2.757625
O 4.860732 -2.118713 2.655568
C 3.539308 -2.579774 2.512008
C 2.866348 -2.014489 1.265467
H 0.864730 0.609817 -1.038221
H 0.503056 0.373604 0.697854
H 0.776760 -1.039644 -0.365901
H 2.282341 -0.126790 2.120766
H 4.382177 1.064749 1.655719
H 4.955660 -0.282646 0.642975
H 4.389658 -0.375915 3.666203
H 5.988816 -0.454334 2.885241
H 2.944174 -2.311586 3.409887
H 3.585499 -3.677411 2.463606
H 1.829049 -2.381143 1.219790
H 3.391930 -2.373892 0.364483