19
H10 C6 O3
C 0.963339 -0.039929 0.000917
C 2.490186 -0.074135 0.041664
C 3.051865 -1.441581 -0.293421
O 2.912444 -1.735374 -1.690462
C 2.847252 -0.801658 -2.638288
O 2.745202 -1.115088 -3.793395
O 2.869277 0.481348 -2.283970
C 3.114106 0.923529 -0.929986
C 4.599543 1.172988 -0.746758
H 0.540947 -0.753637 0.723715
H 0.570701 -0.299948 -0.994671
H 0.591052 0.963921 0.254302
H 2.830644 0.183997 1.055996
H 2.516521 -2.242780 0.233074
H 4.118621 -1.518911 -0.034600
H 2.577709 1.880692 -0.865496
H 5.191048 0.253247 -0.870118
H 4.788817 1.576629 0.258597
H 4.951757 1.906562 -1.485950