25
H16 C8 O1
C 1.016506 0.159619 0.294229
C 2.530132 0.090477 0.080334
C 3.005422 -1.313096 -0.324314
C 2.680230 -1.637098 -1.782302
O 3.207853 -0.642388 -2.640628
C 2.698948 0.655801 -2.395250
C 3.024942 1.097557 -0.968756
C 3.283955 1.580417 -3.444293
C 3.246545 -2.970675 -2.227874
H 0.698825 -0.548961 1.075673
H 0.450681 -0.082115 -0.619069
H 0.711748 1.169133 0.613123
H 3.005780 0.343854 1.042428
H 2.557863 -2.077787 0.331698
H 4.100631 -1.378073 -0.201018
H 1.577188 -1.661996 -1.906159
H 1.595947 0.632595 -2.519720
H 2.591611 2.094266 -0.783806
H 4.121484 1.198885 -0.889784
H 4.381108 1.619931 -3.353682
H 2.888209 2.600149 -3.325932
H 3.033333 1.225065 -4.455031
H 4.343284 -2.976918 -2.124626
H 2.997721 -3.162860 -3.282318
H 2.835243 -3.789181 -1.618493