17
H10 C6 O1
C -1.266940 -0.787307 -0.516337
C -1.235714 0.768431 -0.528097
C 0.014464 1.065367 0.311798
C -0.025529 -0.032492 1.375318
C -0.014927 -1.141345 0.311093
C 1.215667 -0.707581 -0.491025
O 1.164550 0.720283 -0.460383
H -1.228582 -1.223149 -1.526101
H -2.175072 -1.168321 -0.025161
H -2.135751 1.206568 -0.070252
H -1.128516 1.190150 -1.537879
H 0.120137 2.103414 0.653645
H -0.939596 -0.019208 1.986979
H 0.860709 -0.028776 2.027395
H 0.030043 -2.178729 0.667384
H 1.189751 -1.067619 -1.534165
H 2.156705 -1.058617 -0.030613