22
H14 C7 O1
C 0.871852 0.136537 0.187442
C 2.389167 0.021613 0.043550
C 2.850341 -1.404054 -0.297428
C 2.513200 -1.789581 -1.742545
C 2.999659 -0.685940 -2.682559
O 2.515462 0.585483 -2.324278
C 2.921791 0.971183 -1.032113
C 3.102123 -3.140430 -2.130564
H 0.484883 -0.588608 0.920748
H 0.362196 -0.045405 -0.770980
H 0.584898 1.144517 0.527242
H 2.851807 0.318205 1.000208
H 2.409401 -2.131499 0.404764
H 3.946735 -1.464914 -0.168826
H 1.415377 -1.846507 -1.845214
H 2.663743 -0.876231 -3.713806
H 4.111732 -0.679985 -2.689766
H 2.547562 1.994519 -0.874486
H 4.029949 1.006415 -0.980065
H 4.202594 -3.129411 -2.056699
H 2.837350 -3.414119 -3.164502
H 2.731847 -3.937528 -1.467001