22
H14 C7 O1
C 1.029056 0.040150 0.185007
C 2.547760 0.053782 0.013160
C 3.025654 1.116176 -0.988949
C 2.695250 0.733947 -2.436564
C 3.170532 -0.695639 -2.698995
O 2.671159 -1.615409 -1.758694
C 3.071060 -1.310092 -0.443201
C 3.299965 1.706832 -3.441525
H 0.650199 1.037554 0.458815
H 0.730139 -0.662895 0.978852
H 0.522152 -0.272925 -0.740449
H 3.005723 0.268425 0.993684
H 4.122430 1.223324 -0.900022
H 2.591523 2.100495 -0.745380
H 1.598324 0.741977 -2.561672
H 4.282464 -0.714678 -2.694480
H 2.838287 -1.040935 -3.690420
H 4.178676 -1.324808 -0.372750
H 2.685022 -2.115496 0.200576
H 4.400089 1.724610 -3.364005
H 2.937175 2.731691 -3.265970
H 3.040322 1.431432 -4.476326