17
H10 C6 O1
C 3.069093 -0.245011 3.433663
C 2.341804 -0.040307 2.132848
C 1.205038 0.663676 2.061667
C 2.961734 -0.654829 0.904561
C 3.434488 -2.049693 0.966009
O 4.346740 -0.975990 1.037778
C 2.577302 -0.088966 -0.441378
H 2.523783 0.222706 4.265009
H 4.079424 0.188767 3.385517
H 3.194889 -1.314358 3.667568
H 0.756880 1.093124 2.962656
H 0.676717 0.835150 1.120631
H 3.458121 -2.638299 0.039727
H 3.310674 -2.637336 1.884094
H 3.183325 -0.557767 -1.229014
H 2.744297 0.998558 -0.470611
H 1.517561 -0.281134 -0.664657