17
H10 C6 O1
C 1.101912 -0.089432 -0.213493
O 2.456753 -0.053072 0.139301
C 2.889655 0.982959 0.954595
C 1.978368 1.830052 1.833883
C 2.669197 2.410934 0.646153
C 3.485016 3.599713 0.305377
C 2.287641 3.205662 -0.544367
H 0.982511 -0.897846 -0.948547
H 0.752483 0.849714 -0.678450
H 0.451602 -0.313284 0.651828
H 3.859898 0.716559 1.386819
H 2.337177 2.082950 2.836875
H 0.896219 1.684584 1.762777
H 4.484697 3.442140 -0.111889
H 3.385143 4.488643 0.936149
H 2.484634 2.773587 -1.530667
H 1.391383 3.831537 -0.488544