25
P1 H15 C5 S1 N2 O1
C 1.180998 -0.440575 -0.344463
N 2.162156 0.028043 0.616090
C 1.747239 1.158551 1.423713
P 3.360613 -1.003242 1.144746
O 3.485229 -2.212480 0.273730
N 4.685343 -0.002822 1.362611
C 5.879793 -0.533070 2.003878
C 4.979223 1.043396 0.392629
S 2.945325 -1.550780 3.162604
C 1.957466 -3.043438 2.834671
H 0.963867 0.354074 -1.077646
H 0.230192 -0.724094 0.143870
H 1.573346 -1.313415 -0.879891
H 1.492806 2.011647 0.773538
H 2.558719 1.473856 2.093686
H 0.862422 0.918345 2.041840
H 5.623124 -1.331970 2.711042
H 6.387873 0.268476 2.563978
H 6.592307 -0.940705 1.263694
H 4.059848 1.403824 -0.083435
H 5.661975 0.684529 -0.399242
H 5.463740 1.891284 0.903163
H 1.778048 -3.524152 3.806339
H 2.512553 -3.727038 2.180185
H 0.991663 -2.789094 2.376579