17
H8 C5 O2 F2
C 0.959438 -0.074400 0.030333
C 2.455246 0.059101 0.145287
C 3.010347 1.182948 1.032924
O 4.264352 0.602607 1.442064
C 4.159332 -0.742632 1.393446
O 3.010304 -1.104700 0.788520
F 4.205785 -1.289150 2.628925
F 5.238629 -1.251290 0.754313
C 2.180288 1.559647 2.242020
H 0.544032 0.834048 -0.429722
H 0.491078 -0.222066 1.013398
H 0.705243 -0.928894 -0.612510
H 2.907373 0.138337 -0.857464
H 3.249485 2.071415 0.434040
H 1.912676 0.676467 2.841270
H 1.255847 2.064691 1.926767
H 2.749384 2.253542 2.876929