22
H12 C7 O3
C 0.908189 0.052188 -0.031709
C 2.434680 -0.011149 0.004358
C 3.004884 -1.395215 -0.285722
O 2.847126 -1.708400 -1.689036
C 2.771189 -0.799893 -2.658610
O 2.650078 -1.140528 -3.804548
O 2.805989 0.491361 -2.337053
C 3.064022 0.956854 -0.995387
C 4.552238 1.205593 -0.828774
C 2.391352 -2.540470 0.488548
H 0.463645 -0.554553 0.769595
H 0.499893 -0.305837 -0.990035
H 0.568872 1.089300 0.108577
H 2.781830 0.279700 1.007938
H 4.088211 -1.380883 -0.088756
H 2.535204 1.918980 -0.945449
H 5.144376 0.286392 -0.951764
H 4.752085 1.618048 0.170967
H 4.896074 1.933402 -1.577628
H 1.326295 -2.665402 0.246677
H 2.489425 -2.351097 1.567654
H 2.912982 -3.479280 0.253456