14
H8 C5 O1
C 0.640133 1.500993 -0.421040
C -0.674465 1.410822 0.475483
C -0.650769 -0.060950 -0.014045
C 0.814144 -0.012802 -0.066101
C 0.632588 -1.526655 -0.364494
O -0.638165 -1.468936 0.370200
H 1.427563 2.189955 -0.085715
H 0.392179 1.699951 -1.473326
H -1.535371 2.040767 0.206750
H -0.421957 1.537285 1.538125
H -1.085919 -0.033737 -1.032580
H 1.152420 -0.004022 0.982288
H 1.340508 -2.230598 0.097161
H 0.460139 -1.785272 -1.423687