15
H8 C5 O2
C 1.006485 0.015517 0.075460
C 2.523066 0.025081 0.122085
C 3.189237 1.108799 0.969134
O 4.479918 0.604798 1.273851
C 4.359511 -0.772441 1.510689
C 3.137029 -1.226421 0.727294
O 2.728990 -2.356518 0.638254
H 0.621337 0.928209 -0.402835
H 0.581240 -0.046346 1.089540
H 0.645192 -0.850490 -0.498082
H 2.936812 0.083629 -0.902215
H 2.605585 1.282474 1.896037
H 3.307151 2.068780 0.449023
H 4.187974 -1.005321 2.581555
H 5.268883 -1.302170 1.187241