19
H12 C5 S1 O1
C 1.067568 -0.160662 -0.016200
C 2.580456 -0.010725 0.095520
C 3.021790 1.193864 0.928471
C 2.529398 2.526612 0.388050
O 3.138993 3.556897 1.115981
C 2.732819 4.830841 0.714307
S 3.366912 -1.555689 0.709404
H 0.622505 0.708330 -0.526122
H 0.606570 -0.241078 0.982115
H 0.801330 -1.059381 -0.590866
H 3.005112 0.086365 -0.918045
H 4.121714 1.227336 0.963416
H 2.669560 1.075053 1.967933
H 1.426439 2.603876 0.468502
H 2.776894 2.612832 -0.691518
H 3.261171 5.569777 1.333813
H 1.642713 4.980798 0.845021
H 2.975528 5.028786 -0.348582
H 2.781270 -1.553323 1.927580