26
H17 C8 N1
C 3.006337 0.369789 1.516294
C 2.495230 0.014177 0.124517
C 2.878720 1.074110 -0.911943
C 2.468549 0.674977 -2.335668
C 3.018531 -0.721430 -2.640229
N 2.574534 -1.699383 -1.661543
C 3.013407 -1.353616 -0.321206
C 2.953707 -3.043970 -2.026088
C 0.958493 0.750070 -2.563840
H 2.608859 1.342066 1.847592
H 4.107206 0.437787 1.528979
H 2.708220 -0.386075 2.260487
H 1.394012 -0.050809 0.167991
H 3.975859 1.206930 -0.881465
H 2.435607 2.047797 -0.642712
H 2.951955 1.374420 -3.038336
H 4.133229 -0.675552 -2.674674
H 2.683985 -1.047476 -3.638734
H 4.129836 -1.351844 -0.256413
H 2.660095 -2.130640 0.376801
H 2.549429 -3.299161 -3.018143
H 2.548929 -3.765580 -1.299142
H 4.057610 -3.188765 -2.064720
H 0.420888 0.000706 -1.963754
H 0.713021 0.562005 -3.621367
H 0.565362 1.744886 -2.300144