14
H8 C4 S1 O1
C -0.764725 -0.941559 -0.317399
C -1.148695 0.364656 0.372562
O 0.032671 1.158236 0.422566
C 1.145402 0.414343 -0.023412
C 0.713401 -1.050081 0.051034
S 1.721796 -2.208032 -0.918853
H -0.870101 -0.851577 -1.410920
H -1.361634 -1.799885 0.019610
H -1.507282 0.180527 1.401462
H -1.938900 0.911284 -0.166937
H 2.017748 0.633971 0.611980
H 1.404910 0.681710 -1.067337
H 0.811389 -1.408830 1.088480
H 1.470470 -1.660023 -2.128837