35
P1 H22 C8 N3 O1
C 0.756631 0.107871 0.236965
C 2.024516 -0.397125 -0.435328
N 3.155399 -0.548116 0.482591
C 3.014496 -1.610316 1.484895
C 2.707200 -1.102540 2.886280
P 4.689789 -0.231558 -0.126782
O 5.206617 -1.148869 -1.193516
N 4.544505 1.341097 -0.693836
C 5.483265 1.798793 -1.698405
C 3.787881 2.393320 -0.048887
N 5.689916 -0.291703 1.221746
C 6.875785 -1.122796 1.215810
C 5.709347 0.796016 2.176769
H -0.037131 0.241090 -0.514246
H 0.926659 1.076179 0.732577
H 0.382324 -0.602572 0.989915
H 2.319423 0.305365 -1.227869
H 1.815489 -1.361900 -0.936664
H 3.928599 -2.223396 1.514556
H 2.210976 -2.287698 1.149968
H 3.539436 -0.501058 3.279108
H 2.548625 -1.948806 3.573481
H 1.800525 -0.479242 2.897354
H 5.974081 0.936883 -2.167544
H 6.260399 2.459141 -1.268763
H 4.956882 2.366182 -2.485758
H 3.123305 1.976362 0.717739
H 3.163685 2.926467 -0.788138
H 4.448428 3.138315 0.432632
H 6.789276 -1.885971 0.433289
H 6.998038 -1.625986 2.190904
H 7.794003 -0.534989 1.022635
H 4.723736 1.273916 2.253668
H 6.451332 1.575091 1.913492
H 5.965733 0.413593 3.178834