30
P1 H19 C7 N2 O1
C 1.052041 -0.266210 -0.551920
C 2.501525 0.151804 -0.305222
C 2.757763 0.624576 1.128045
P 3.789887 -0.998651 -0.938471
O 5.155082 -0.508683 -0.545411
N 3.377404 -2.572891 -0.482987
C 4.201720 -3.637769 -1.037725
C 2.978170 -2.840728 0.888542
N 3.646870 -1.074887 -2.612158
C 2.567146 -1.739545 -3.310015
C 4.443655 -0.182839 -3.427824
H 0.374626 0.548910 -0.251062
H 0.771401 -1.158706 0.027873
H 0.858612 -0.478390 -1.612631
H 2.714863 1.013802 -0.964605
H 2.479673 -0.133139 1.875960
H 2.160532 1.526522 1.336355
H 3.818697 0.873594 1.272071
H 4.520457 -3.385615 -2.057619
H 3.621060 -4.573705 -1.079659
H 5.107834 -3.823204 -0.430434
H 2.238546 -2.113605 1.242724
H 3.833830 -2.836419 1.591007
H 2.506664 -3.835044 0.938881
H 2.019259 -2.402738 -2.628565
H 2.965866 -2.354553 -4.136609
H 1.850113 -1.018973 -3.747009
H 5.254404 0.244937 -2.824835
H 3.840671 0.644359 -3.849101
H 4.895239 -0.732497 -4.272629