15
H9 C4 N1 O1
C 1.093851 -0.007641 -0.118323
C 2.605344 0.086858 -0.082041
O 3.217276 -0.075998 0.966380
N 3.241996 0.363847 -1.257224
C 2.577754 0.487414 -2.537631
C 4.688396 0.382749 -1.300918
H 0.749638 -0.271112 0.888632
H 0.750503 -0.774338 -0.828875
H 0.637886 0.950752 -0.410158
H 1.529419 0.784517 -2.425301
H 2.615719 -0.456172 -3.110801
H 3.079292 1.265018 -3.133659
H 5.079197 0.250750 -0.286500
H 5.051622 1.340963 -1.707416
H 5.072257 -0.429318 -1.942345