14
H7 C5 N1 O1
C -0.751902 -0.952198 -0.305090
C -1.129238 0.359964 0.379678
O 0.059783 1.134983 0.462345
C 1.164408 0.416355 -0.025426
C 0.737669 -1.059834 0.055186
C 1.507418 -1.947202 -0.807478
N 2.118630 -2.643885 -1.499065
H -0.866434 -0.875287 -1.396715
H -1.341326 -1.807141 0.050514
H -1.513740 0.183685 1.399172
H -1.898497 0.911407 -0.183980
H 2.048015 0.633496 0.592617
H 1.394179 0.689990 -1.072938
H 0.851287 -1.421052 1.089908