17
H10 C5 O2
C 0.880239 0.219898 -0.068322
O 2.272367 0.111461 0.080833
C 3.015352 1.269242 -0.154493
C 2.841706 2.377132 0.903570
C 2.796062 3.660041 0.077303
C 2.166275 3.157553 -1.215151
O 2.700024 1.855726 -1.396452
H 0.452030 -0.764263 0.167124
H 0.599395 0.486800 -1.101069
H 0.428910 0.960413 0.617146
H 4.057132 0.911746 -0.200231
H 3.656290 2.353234 1.639636
H 1.896823 2.228907 1.447917
H 3.812960 4.034055 -0.120907
H 2.218366 4.467154 0.549307
H 2.420773 3.762452 -2.097670
H 1.062937 3.119250 -1.131271