13
H7 C4 I1 O1
C -0.749264 -0.967492 -0.292215
C -1.141548 0.362172 0.355233
O 0.048182 1.140770 0.440115
C 1.160134 0.393277 -0.003784
C 0.712531 -1.059325 0.121510
I 1.903352 -2.430643 -1.034905
H -0.832746 -0.905754 -1.388260
H -1.356797 -1.811898 0.059476
H -1.544556 0.208223 1.371567
H -1.900718 0.902759 -0.232659
H 2.034150 0.627516 0.622873
H 1.408510 0.636585 -1.054955
H 0.811710 -1.410939 1.157174