22
P1 H12 C5 N3 O1
C 1.552627 0.552105 -0.040660
N 2.322123 -0.680631 0.031947
C 2.725567 -1.057853 1.380683
P 2.151364 -1.850853 -1.127614
O 0.902419 -2.649798 -1.248764
C 2.314028 -0.837443 -2.643238
N 2.428136 -0.287382 -3.655172
N 3.530722 -2.751416 -1.056456
C 3.500732 -4.157085 -1.425450
C 4.849363 -2.139960 -1.024309
H 2.140907 1.374950 0.394297
H 0.600217 0.472324 0.511447
H 1.325716 0.818185 -1.082676
H 3.398780 -0.289334 1.792240
H 3.259682 -2.016580 1.369728
H 1.852859 -1.153020 2.049574
H 2.466028 -4.519898 -1.431500
H 4.075420 -4.746428 -0.692990
H 3.940668 -4.318667 -2.425074
H 4.776388 -1.079021 -0.751507
H 5.344254 -2.214304 -2.008460
H 5.481628 -2.646209 -0.277377