19
H10 C6 O3
C 1.035826 0.074873 -0.119277
C 2.561071 0.054929 -0.066124
C 3.120499 -1.284985 -0.536806
C 4.632472 -1.339442 -0.573596
O 5.215901 -0.531894 -1.611726
C 5.428670 0.771739 -1.424430
O 6.390640 1.321044 -1.883188
O 4.524539 1.433905 -0.696400
C 3.118346 1.205995 -0.889149
H 0.615835 -0.750912 0.474423
H 0.674344 -0.039300 -1.154515
H 0.631795 1.018283 0.279007
H 2.881618 0.219982 0.977772
H 2.730390 -1.523686 -1.541656
H 2.777768 -2.087053 0.136540
H 4.973598 -2.356991 -0.802182
H 5.067188 -1.046024 0.395599
H 2.919115 1.054391 -1.963650
H 2.646786 2.151656 -0.589941