22
H14 C7 O1
C 2.980005 0.345557 1.425089
C 2.536453 -0.057891 0.023241
C 2.922958 0.989821 -1.027907
C 2.501597 0.547626 -2.423488
O 2.993355 -0.732129 -2.745090
C 2.545443 -1.714684 -1.841626
C 3.034201 -1.454738 -0.413645
C 4.548238 -1.640609 -0.309873
H 2.479372 1.275132 1.739658
H 4.065875 0.525605 1.473169
H 2.734696 -0.435216 2.163296
H 1.431746 -0.116731 0.026852
H 4.013858 1.156170 -1.010599
H 2.449587 1.957960 -0.794711
H 2.883918 1.238573 -3.189697
H 1.393245 0.551626 -2.493704
H 2.919254 -2.681410 -2.212939
H 1.436204 -1.757913 -1.851034
H 2.550529 -2.206133 0.235338
H 5.089161 -0.933100 -0.956608
H 4.831758 -2.657188 -0.625953
H 4.909120 -1.504726 0.720539