17
H10 C6 O1
C 0.966575 0.036324 0.183875
C 2.482601 0.034777 0.054866
C 3.174261 1.276617 0.673530
C 4.500058 0.772228 1.206199
C 4.499094 -0.695908 1.212181
C 3.172620 -1.202881 0.683664
O 4.369286 0.043188 2.419776
H 0.524827 0.924202 -0.296097
H 0.664285 0.040854 1.244583
H 0.523632 -0.854847 -0.288837
H 2.737411 0.030229 -1.018579
H 2.583557 1.695357 1.505844
H 3.312311 2.078051 -0.067460
H 5.414393 1.368843 1.111063
H 5.412631 -1.294501 1.121946
H 2.581373 -1.613996 1.519389
H 3.309585 -2.010527 -0.050754