19
H12 C6 O1
C -2.529224 0.113887 -0.117771
C -1.075519 -0.009282 0.320828
C -0.431789 -1.321484 -0.139998
C 1.056310 -1.347688 0.206777
C 1.737457 -0.083082 -0.299713
O 1.109590 1.079489 0.188656
C -0.241868 1.166524 -0.191530
H -3.131024 -0.722868 0.270041
H -2.613401 0.103479 -1.217455
H -2.982375 1.050338 0.245030
H -1.031982 0.022843 1.424780
H -0.553340 -1.409855 -1.235860
H -0.954665 -2.182672 0.307206
H 1.549656 -2.231760 -0.227740
H 1.183908 -1.406378 1.301231
H 1.732794 -0.077451 -1.410308
H 2.787027 -0.038533 0.027324
H -0.324797 1.215017 -1.299369
H -0.624347 2.117875 0.209913