26
H17 C8 N1
C 0.929152 -0.006066 0.250967
C 2.448467 0.013907 0.083274
C 2.924975 1.061735 -0.928109
C 2.587988 0.644523 -2.355633
C 3.082041 -0.767595 -2.687360
N 2.584923 -1.720586 -1.690652
C 2.990925 -1.351832 -0.341027
C 2.944410 -3.093885 -1.972620
C 2.667650 -1.144988 -4.106135
H 0.545788 0.990494 0.522374
H 0.632620 -0.707786 1.047020
H 0.424801 -0.325887 -0.673036
H 2.895370 0.249287 1.063962
H 4.020040 1.169659 -0.837316
H 2.489435 2.048626 -0.700893
H 3.036037 1.351593 -3.071861
H 1.496993 0.680328 -2.518638
H 4.199283 -0.750627 -2.648481
H 4.103188 -1.344491 -0.252219
H 2.625858 -2.126594 0.352329
H 2.488031 -3.447691 -2.907516
H 2.576587 -3.743943 -1.164404
H 4.044985 -3.247545 -2.050864
H 1.577263 -1.298138 -4.158934
H 3.163445 -2.057132 -4.467335
H 2.933076 -0.332477 -4.799131