12
H6 C4 O2
C -0.755459 1.148784 -0.132037
C 0.648131 0.744268 -0.508753
C 0.674578 -0.714584 -0.503173
O 1.308529 0.030510 0.526513
C -0.713498 -1.166806 -0.123133
O -1.356284 -0.018294 0.394874
H -1.279375 1.516468 -1.035826
H -0.792229 1.937139 0.636092
H 1.265530 1.369627 -1.161050
H 1.314236 -1.322251 -1.150750
H -0.721631 -1.950032 0.651062
H -1.223619 -1.560219 -1.023968