22
H14 C7 O1
C 3.115797 0.256108 1.341392
C 2.610652 0.052799 -0.073311
C 3.174836 1.072699 -1.061389
C 2.742608 0.743267 -2.488850
C 3.092035 -0.708521 -2.813906
C 2.550576 -1.671093 -1.750727
O 2.964016 -1.266829 -0.453686
C 1.040554 -1.883644 -1.835236
H 2.841950 1.255824 1.710596
H 4.212631 0.159549 1.375372
H 2.682126 -0.495498 2.017952
H 1.506001 0.152696 -0.069003
H 4.277265 1.052719 -0.991970
H 2.847011 2.083982 -0.771700
H 3.226689 1.422854 -3.207644
H 1.655458 0.904507 -2.590077
H 4.189645 -0.813835 -2.847039
H 2.709346 -0.999150 -3.805210
H 3.031725 -2.651864 -1.893115
H 0.473917 -0.941222 -1.794305
H 0.703599 -2.522213 -1.004461
H 0.784162 -2.385594 -2.780612