38
P1 H24 C9 N3 O1
C 2.363472 -1.981978 0.832926
C 2.577677 -0.585996 0.259716
N 3.077170 -0.586288 -1.106399
C 2.111318 -0.812390 -2.160227
P 4.701481 -0.369955 -1.440163
O 5.012548 -0.793921 -2.843456
N 5.032249 1.224616 -1.031753
C 6.406327 1.679934 -1.146673
C 4.022412 2.273853 -1.076596
C 3.886877 3.031288 0.238423
N 5.622339 -1.225430 -0.331480
C 5.909726 -0.806743 1.023871
C 6.001557 -2.592871 -0.668058
C 7.474594 -2.735472 -1.029280
H 1.985766 -1.924304 1.865596
H 3.310150 -2.544212 0.841274
H 1.632928 -2.552756 0.238864
H 3.277669 -0.027306 0.899244
H 1.631193 -0.016603 0.285914
H 1.584259 -1.773893 -2.030507
H 2.629303 -0.839850 -3.126792
H 1.349931 -0.010706 -2.189568
H 7.096695 0.826812 -1.092216
H 6.665716 2.368342 -0.325826
H 6.586168 2.204541 -2.103524
H 3.055972 1.821071 -1.337095
H 4.267805 2.981601 -1.890688
H 3.574417 2.355239 1.049287
H 3.130615 3.826243 0.145269
H 4.834233 3.507599 0.535332
H 5.648212 0.249888 1.161324
H 6.983499 -0.917595 1.252782
H 5.344128 -1.401810 1.765607
H 5.386506 -2.932370 -1.513794
H 5.754431 -3.248067 0.186935
H 7.702454 -2.141814 -1.927700
H 7.724589 -3.787627 -1.237741
H 8.127304 -2.390860 -0.211798