18
H11 C5 N1 O1
C 0.923511 -0.009618 0.213085
N 2.349807 -0.072090 -0.037643
C 2.836874 -1.398493 -0.399147
C 2.558227 -1.752643 -1.857376
O 3.082733 -0.769627 -2.723462
C 2.553910 0.509004 -2.445906
C 2.832389 0.911554 -1.000209
H 0.658243 -0.718207 1.013608
H 0.280069 -0.242360 -0.660708
H 0.653784 1.000742 0.559010
H 2.388474 -2.152567 0.266717
H 3.930017 -1.422934 -0.240917
H 1.467603 -1.865034 -2.025561
H 3.036088 -2.708166 -2.120841
H 1.462969 0.521163 -2.646255
H 3.028284 1.216532 -3.142422
H 2.380053 1.892639 -0.785981
H 3.925235 1.014382 -0.874861