15
H8 C5 O2
C 1.006312 0.019916 0.061642
C 2.524413 0.065661 0.079724
C 3.150066 1.188566 0.904464
C 4.490712 0.618226 1.311298
O 5.464384 1.194582 1.712800
O 4.463190 -0.718417 1.172636
C 3.176202 -1.160237 0.724502
H 0.591783 0.922508 -0.412030
H 0.601172 -0.044627 1.084437
H 0.644659 -0.852743 -0.504236
H 2.899579 0.146000 -0.954211
H 2.576853 1.375902 1.829835
H 3.273965 2.146213 0.382785
H 2.600909 -1.511713 1.598050
H 3.322929 -2.001339 0.034263