28
H18 C8 N1 F1
C 4.366826 -0.887940 -1.454211
C 3.976442 0.587513 -1.437096
C 4.876808 1.503907 -0.589510
C 6.277190 1.625818 -1.193195
C 4.939641 1.103725 0.900921
C 3.554656 0.879578 1.515230
N 5.722516 2.102402 1.624564
C 6.087196 1.779451 2.986262
C 7.207318 2.695349 3.437863
F 7.542989 2.415977 4.754044
H 3.693705 -1.460319 -2.111370
H 4.307277 -1.341142 -0.451883
H 5.392379 -1.038013 -1.826294
H 2.932267 0.680705 -1.097639
H 3.985070 0.972252 -2.471208
H 4.413004 2.508876 -0.619409
H 6.816834 0.665211 -1.155154
H 6.879468 2.360484 -0.642409
H 6.225811 1.939780 -2.247981
H 5.504397 0.155679 0.973017
H 2.928440 1.780815 1.399733
H 3.635142 0.659355 2.590630
H 3.025254 0.034430 1.051707
H 5.233684 2.997176 1.597470
H 6.447668 0.737986 3.021387
H 5.256987 1.855004 3.717989
H 6.897674 3.752287 3.381173
H 8.101469 2.554963 2.810248