29
H18 C8 N1 O1 F1
C 4.651280 -0.015670 -3.535470
O 4.094786 -0.445515 -2.324620
C 4.793926 -0.160140 -1.125974
C 6.160882 -0.828920 -1.063449
C 4.860575 1.345760 -0.783803
C 3.486879 1.998849 -0.902457
N 5.874825 2.057159 -1.560343
C 6.953299 2.710304 -0.840209
C 8.053330 3.129014 -1.806241
C 6.447096 3.901198 -0.029981
F 7.477414 4.461981 0.715103
H 4.587508 1.077931 -3.676633
H 4.075218 -0.494266 -4.342135
H 5.709061 -0.309848 -3.654724
H 4.157536 -0.619691 -0.350956
H 6.885084 -0.343496 -1.733297
H 6.079475 -1.892032 -1.336471
H 6.560555 -0.767406 -0.039599
H 5.158981 1.375571 0.279806
H 3.148764 2.010457 -1.950442
H 3.518220 3.037706 -0.539668
H 2.733250 1.451262 -0.316162
H 5.449723 2.701736 -2.223567
H 7.370993 1.979146 -0.126500
H 7.658442 3.830527 -2.560339
H 8.457929 2.252068 -2.332714
H 8.876096 3.629666 -1.275747
H 5.655640 3.596397 0.672672
H 6.047292 4.679574 -0.703111