32
H20 C9 N1 O1 F1
C 0.981386 -0.064661 -0.004434
C 2.503563 0.024573 -0.111764
C 2.913049 0.985027 -1.228831
C 3.113977 0.405341 1.242624
C 4.638980 0.416516 1.286422
C 5.198855 0.606951 2.693299
O 4.761760 -0.408695 3.582569
C 6.721290 0.694330 2.702906
N 7.206194 0.924448 4.047905
C 8.642699 0.832590 4.183514
C 9.052841 1.218924 5.589444
F 10.429461 1.125846 5.718446
H 0.529471 -0.393963 -0.953672
H 0.547607 0.917854 0.248610
H 0.675053 -0.775771 0.779401
H 2.882858 -0.980541 -0.374932
H 2.606500 2.017859 -0.989039
H 2.435939 0.708659 -2.182682
H 4.001207 0.988625 -1.395120
H 2.752420 -0.301745 2.007117
H 2.734636 1.400313 1.542000
H 5.039997 1.217764 0.644971
H 5.030505 -0.534221 0.876999
H 4.802901 1.545209 3.117952
H 5.021150 -1.258204 3.201349
H 7.043990 1.520894 2.047177
H 7.129307 -0.241373 2.255375
H 6.757645 0.242443 4.659264
H 9.118071 1.530955 3.474146
H 9.046908 -0.177280 3.955624
H 8.592659 0.546367 6.332571
H 8.747561 2.253446 5.812167