34
H21 C10 N1 O2
C 3.977424 0.724278 -0.359170
O 3.100255 -0.180845 -0.976990
C 2.306454 -0.894607 -0.093275
C 1.324761 -1.701539 -0.934129
N 0.371986 -2.444241 -0.131649
C -0.722822 -1.610429 0.321778
C -0.076066 -3.660875 -0.792713
C -0.863614 -4.592131 0.124799
C -1.076432 -6.002431 -0.399419
C -1.103137 -6.348651 -1.864720
C 0.029950 -6.828391 -0.995946
O 3.111588 -1.740197 0.681922
C 2.774484 -1.827589 2.039600
H 4.522234 1.255448 -1.151662
H 4.706202 0.211029 0.290520
H 3.428919 1.467021 0.251365
H 1.772641 -0.192094 0.584180
H 1.933493 -2.407365 -1.518858
H 0.829899 -1.018385 -1.657479
H -0.338026 -0.694916 0.793876
H -1.329893 -2.129120 1.077426
H -1.396920 -1.303065 -0.509102
H 0.823598 -4.183585 -1.153421
H -0.686846 -3.424239 -1.693469
H -1.853302 -4.155876 0.336953
H -0.334036 -4.647061 1.092115
H -1.781936 -6.572649 0.214060
H -0.883166 -5.561635 -2.591296
H -1.839923 -7.080073 -2.208301
H 1.010046 -6.362262 -1.136599
H 0.073008 -7.890109 -0.737589
H 3.530257 -2.458882 2.528785
H 1.782988 -2.287804 2.189330
H 2.781400 -0.835849 2.531366