27
H18 C7 N2
C 0.910441 0.013030 -0.154495
C 2.428414 0.006872 -0.089193
N 3.015191 0.119302 -1.412285
C 4.465365 0.158103 -1.411178
C 5.020490 0.294545 -2.821929
C 6.541731 0.314376 -2.870538
N 7.027885 0.424543 -4.232856
C 8.474924 0.472678 -4.339215
C 8.919054 0.633632 -5.783347
H 0.471745 -0.110741 0.847089
H 0.545353 -0.802870 -0.797639
H 0.536850 0.963998 -0.568827
H 2.775303 -0.939352 0.362259
H 2.772455 0.813572 0.595790
H 2.663351 0.967830 -1.856369
H 4.836982 -0.780231 -0.961388
H 4.867719 0.979077 -0.775799
H 4.633697 1.227156 -3.272926
H 4.645963 -0.534880 -3.444009
H 6.933813 -0.623216 -2.436801
H 6.920569 1.132470 -2.217214
H 6.639664 1.269345 -4.653098
H 8.882219 -0.468612 -3.929787
H 8.917051 1.287380 -3.723488
H 8.525722 -0.185455 -6.405475
H 10.016732 0.632889 -5.861091
H 8.553827 1.584640 -6.205022