31
H19 C9 N1 O2
C 1.391631 0.496151 0.052063
O 2.688916 -0.004947 0.172180
C 2.827903 -1.313692 -0.307131
C 4.284717 -1.729591 -0.111317
N 4.637663 -3.060997 -0.555645
C 4.008751 -4.145952 0.176682
C 4.733620 -5.459260 -0.095799
C 4.808506 -5.744298 -1.598285
C 5.255509 -4.550166 -2.455424
O 6.654294 -4.416022 -2.619819
C 7.470828 -4.342111 -1.483450
C 4.568988 -3.260258 -1.992583
H 1.381483 1.520866 0.450817
H 0.658306 -0.107897 0.622263
H 1.054630 0.528672 -1.002970
H 2.545752 -1.366629 -1.378475
H 2.149548 -2.001323 0.238180
H 4.521671 -1.639708 0.962342
H 4.920755 -1.000409 -0.641085
H 2.934921 -4.260605 -0.097795
H 4.039206 -3.911327 1.252449
H 4.204692 -6.282189 0.410864
H 5.739589 -5.407510 0.346668
H 3.798617 -6.021610 -1.945904
H 5.459283 -6.607320 -1.811684
H 4.906700 -4.733592 -3.483755
H 8.480689 -4.073860 -1.829313
H 7.548180 -5.310462 -0.954026
H 7.130276 -3.578984 -0.764678
H 3.515781 -3.301569 -2.353139
H 5.049976 -2.408673 -2.499004