34
H21 C10 N1 O2
C 0.618014 1.194845 -0.532001
C 1.914217 0.465525 -0.249906
O 2.906594 1.424359 0.016416
C 4.211502 1.015768 0.385461
C 4.874840 0.010033 -0.566423
C 4.628584 -1.460224 -0.233072
N 4.951993 -1.744514 1.157457
C 4.923625 -3.162262 1.459352
C 5.801969 -3.522875 2.646957
O 5.747471 -4.909366 2.831082
C 6.520852 -5.356269 3.903842
C 4.113103 -0.959753 2.052259
C 4.329729 0.535946 1.840365
H -0.184613 0.477418 -0.760080
H 0.733986 1.871552 -1.392627
H 0.311611 1.794586 0.338815
H 2.185744 -0.155374 -1.124696
H 1.775502 -0.223538 0.603142
H 4.778705 1.956127 0.310983
H 5.961924 0.183844 -0.511415
H 4.569421 0.225128 -1.602617
H 5.272372 -2.080423 -0.876037
H 3.580504 -1.749606 -0.464510
H 5.304032 -3.717085 0.587598
H 3.890972 -3.531646 1.645259
H 5.467410 -2.999188 3.565046
H 6.839440 -3.186094 2.445484
H 6.418257 -6.449086 3.968625
H 6.190468 -4.916597 4.865788
H 7.593725 -5.112999 3.772193
H 4.363937 -1.206912 3.094497
H 3.041572 -1.227634 1.919227
H 5.349862 0.776857 2.182711
H 3.632927 1.115227 2.465775