26
H15 C8 S1 N1 O1
C 0.966398 -0.472781 -0.161724
C 2.388698 -0.004332 0.123559
C 3.094837 -0.922354 1.112860
C 4.526011 -0.575958 1.484566
S 5.278209 0.789559 0.859804
N 5.136541 -1.423190 2.329009
C 4.532072 -2.617369 2.921410
C 4.624156 -2.538577 4.440533
O 5.948337 -2.366803 4.874522
C 6.525826 -1.208825 4.322426
C 6.505700 -1.239402 2.801425
H 0.465696 0.197124 -0.877314
H 0.357900 -0.494326 0.757158
H 0.955037 -1.488069 -0.590792
H 2.376071 1.022529 0.520291
H 2.967478 0.040526 -0.812119
H 3.088489 -1.951271 0.712642
H 2.505415 -0.962572 2.045661
H 5.088339 -3.499392 2.561826
H 3.486544 -2.733334 2.626523
H 4.248577 -3.472988 4.880868
H 3.986558 -1.704989 4.797935
H 7.563933 -1.154510 4.679068
H 5.990073 -0.304625 4.674764
H 7.116212 -2.082081 2.434945
H 6.903922 -0.306328 2.388592