25
H16 C8 O1
C 2.176283 0.258664 2.376067
C 3.400198 0.933176 1.770470
C 3.251132 1.258010 0.285514
C 2.325232 2.448120 -0.012377
C 3.305953 3.613509 -0.109548
C 4.518230 2.946835 -0.755278
C 5.862173 3.597261 -0.469292
C 5.981419 5.004938 -1.039181
O 4.521380 1.619516 -0.247889
H 2.338085 0.025802 3.439494
H 1.946267 -0.687262 1.858965
H 1.281679 0.898441 2.311198
H 4.279289 0.276754 1.876978
H 3.636764 1.863351 2.316157
H 2.900956 0.349149 -0.237846
H 1.553648 2.588063 0.758088
H 1.813318 2.302171 -0.976161
H 3.574339 3.987416 0.892991
H 2.920535 4.458990 -0.696236
H 4.367295 2.913463 -1.855215
H 6.652465 2.953628 -0.889586
H 6.013047 3.609702 0.623823
H 5.810867 5.011322 -2.128171
H 6.983644 5.421586 -0.857497
H 5.250221 5.691135 -0.583128