24
H14 C7 N1 O1 F1
C 1.559940 0.566213 -2.783422
C 2.406218 0.827602 -1.787936
C 3.037478 -0.207104 -0.895720
C 2.573051 -0.029009 0.556899
O 1.183540 -0.083900 0.710813
N 4.487004 -0.087881 -0.926344
C 5.104139 -0.499819 -2.173927
C 6.616140 -0.331443 -2.112557
C 7.288855 -0.716777 -3.410151
F 8.664188 -0.561903 -3.296311
H 1.120845 1.365500 -3.387962
H 1.270450 -0.461847 -3.029133
H 2.688515 1.865145 -1.564540
H 2.695900 -1.211888 -1.235922
H 3.085905 -0.788908 1.180626
H 2.903217 0.959028 0.916418
H 0.879949 -0.937904 0.380113
H 4.880773 -0.642715 -0.166795
H 4.699765 0.123004 -2.989656
H 4.856861 -1.550926 -2.439781
H 7.028282 -0.955919 -1.301395
H 6.855929 0.717065 -1.873544
H 6.945016 -0.081444 -4.242787
H 7.088561 -1.769440 -3.668877