23
H14 C7 N2
C 1.220766 -0.473569 -0.137900
C 2.554680 0.260809 -0.117989
C 3.135001 0.395060 1.284347
N 4.431535 1.056535 1.229866
C 5.053944 1.409187 2.507891
C 4.374354 2.588548 3.228159
C 5.145797 0.190233 3.437055
C 6.442973 1.816698 2.169007
N 7.520319 2.144844 1.907593
H 0.824914 -0.552156 -1.161779
H 0.466120 0.048786 0.472163
H 1.321524 -1.496086 0.260524
H 2.430347 1.268458 -0.552633
H 3.288839 -0.263214 -0.752490
H 3.258961 -0.611824 1.714883
H 2.402345 0.925210 1.927523
H 4.342998 1.906680 0.673436
H 3.347662 2.307042 3.503449
H 4.333364 3.471378 2.572510
H 4.914272 2.857898 4.147948
H 4.144710 -0.081593 3.799570
H 5.769728 0.423831 4.310979
H 5.580229 -0.670155 2.907737