28
H17 C9 N1 O1
C 1.392552 -0.711248 0.515952
C 2.418005 -0.010213 0.020271
C 2.915523 -0.173843 -1.387876
C 3.152399 1.011936 0.860018
N 4.566509 0.733712 0.940714
C 5.406055 1.799154 1.439834
C 6.750975 1.096259 1.603410
O 7.715354 1.796535 2.338109
C 6.339045 -0.259904 2.204172
C 7.337978 -1.379406 1.961736
C 4.926025 -0.501173 1.637113
H 0.847337 -1.438188 -0.094808
H 1.059313 -0.577260 1.550385
H 2.350835 -0.940127 -1.937921
H 3.982319 -0.447657 -1.388829
H 2.838209 0.779650 -1.937280
H 2.684230 1.070582 1.868261
H 3.030014 2.003573 0.389361
H 5.075965 2.192911 2.430799
H 5.441823 2.647430 0.737985
H 7.187871 0.936495 0.603437
H 7.373355 1.921703 3.232448
H 6.251495 -0.093113 3.292962
H 7.437554 -1.589421 0.884020
H 7.032059 -2.311778 2.461676
H 8.330882 -1.099348 2.346953
H 4.210614 -0.731310 2.453267
H 4.900675 -1.360651 0.944040