27
H15 C8 N1 O1 F2
C 2.452181 0.727665 1.345919
C 2.264614 0.158397 -0.056173
C 2.986940 1.065296 -1.077309
O 2.504628 2.388443 -1.019332
C 2.907797 0.508248 -2.492544
C 3.406318 -0.928916 -2.535970
C 2.659173 -1.768671 -1.514246
N 2.772444 -1.210552 -0.173318
C 2.319431 -2.152779 0.828444
C 3.471416 -2.984809 1.344481
F 4.339488 -2.205474 2.046306
F 3.002717 -3.925035 2.212348
H 2.287566 1.812803 1.314247
H 3.477164 0.535300 1.699372
H 1.748698 0.308201 2.078201
H 1.178878 0.195147 -0.315591
H 4.046640 1.117344 -0.772117
H 1.591343 2.380495 -1.333295
H 3.480952 1.158297 -3.171571
H 1.852070 0.542352 -2.821036
H 4.484860 -0.958088 -2.306999
H 3.272382 -1.359854 -3.539944
H 3.065922 -2.791415 -1.502258
H 1.589974 -1.855276 -1.816087
H 1.544679 -2.842648 0.442555
H 1.885381 -1.646659 1.699858
H 4.041276 -3.497931 0.553901