15
H9 C4 N1 O1
C 1.127256 -0.368223 -0.091606
C 2.184851 0.439660 -0.013065
C 3.015461 0.683232 1.230114
N 2.551796 0.048277 2.449340
C 4.471884 0.292173 0.939750
O 5.365194 0.585091 1.976882
H 0.578358 -0.497818 -1.028885
H 0.765321 -0.926961 0.777907
H 2.509765 0.983874 -0.909148
H 3.012615 1.778458 1.399593
H 2.559952 -0.966312 2.335691
H 1.580923 0.302642 2.628329
H 4.779229 0.769556 -0.011598
H 4.517863 -0.798607 0.776966
H 5.291024 1.525859 2.175529