27
H16 C8 N1 O1 F1
C 0.915526 0.410095 -0.969186
C 1.983725 -0.163433 -0.047401
C 2.851409 -1.215360 -0.712894
F 3.435658 -0.660836 -1.856930
C 3.962338 -1.734388 0.183554
N 4.702235 -2.824734 -0.429889
C 4.111177 -4.143200 -0.224335
C 4.448235 -4.723659 1.146394
O 5.842390 -4.749465 1.360788
C 6.414484 -3.464868 1.245796
C 6.126875 -2.865208 -0.126132
H 0.305832 1.162406 -0.446818
H 0.238304 -0.379336 -1.333132
H 1.369600 0.893898 -1.846663
H 1.513433 -0.627387 0.834749
H 2.635099 0.643615 0.330036
H 2.222796 -2.052735 -1.064154
H 3.516539 -1.998402 1.163353
H 4.651579 -0.896521 0.374199
H 4.497781 -4.826337 -1.000898
H 3.019061 -4.090561 -0.352611
H 4.086303 -5.759588 1.226378
H 3.953360 -4.133320 1.944737
H 7.497806 -3.575134 1.404673
H 6.021504 -2.798625 2.041798
H 6.626390 -3.489496 -0.888573
H 6.552071 -1.852671 -0.199170