31
H19 C10 N1 O1
C 0.665311 0.383130 -0.747774
C 2.145075 0.571741 -0.416573
C 2.529199 -0.171028 0.859939
C 2.996863 0.116062 -1.607359
N 4.439883 0.248329 -1.427126
C 5.165577 -0.629625 -2.305161
C 6.447053 -1.259410 -1.834286
C 5.203040 -2.092321 -1.980583
C 4.891276 1.613270 -1.572579
C 4.625374 2.646199 -0.465786
O 5.969943 3.121618 -0.548789
C 6.357271 1.951897 -1.274352
H 0.026250 0.730060 0.079219
H 0.433489 -0.680770 -0.925654
H 0.378170 0.944093 -1.651569
H 2.307134 1.650492 -0.254503
H 2.331049 -1.251771 0.754824
H 1.951134 0.193427 1.723909
H 3.599013 -0.050525 1.084253
H 2.663988 0.656981 -2.520828
H 2.782964 -0.950741 -1.782384
H 5.119116 -0.376026 -3.377873
H 6.768835 -1.030698 -0.815845
H 7.255553 -1.386078 -2.558934
H 4.701012 -2.402780 -1.059787
H 5.137432 -2.805425 -2.806066
H 4.596594 2.031322 -2.558691
H 4.414459 2.182009 0.514906
H 3.883076 3.435820 -0.664998
H 6.847541 1.212481 -0.617534
H 7.016316 2.175918 -2.128275