28
H17 C8 N1 O2
C 0.996595 0.625658 -0.279268
O 2.066178 -0.092444 0.258229
C 2.616435 -1.020286 -0.632998
C 3.765524 -1.735880 0.056217
N 4.378837 -2.719017 -0.825200
C 3.691589 -4.011811 -0.829991
C 4.275184 -4.817056 0.351831
C 5.667034 -4.184597 0.591788
O 6.751747 -5.058187 0.410272
C 6.947684 -5.952424 1.465990
C 5.744198 -3.071499 -0.472949
H 0.633210 1.325027 0.487414
H 0.158152 -0.036175 -0.573946
H 1.295169 1.209875 -1.172073
H 2.995041 -0.521632 -1.548651
H 1.846330 -1.748698 -0.961079
H 3.394020 -2.169968 1.008268
H 4.521419 -0.982522 0.325805
H 3.909644 -4.524834 -1.781289
H 2.601958 -3.882615 -0.771293
H 4.370255 -5.886882 0.114415
H 3.639680 -4.728879 1.244901
H 5.716929 -3.750866 1.609270
H 7.828326 -6.567399 1.230526
H 6.084252 -6.629048 1.614033
H 7.133732 -5.426403 2.423107
H 6.252225 -3.507206 -1.351103
H 6.317583 -2.192092 -0.149256