31
H19 C9 N1 O2
C 0.396180 -0.656502 -1.617294
O 1.619566 -1.325523 -1.488958
C 2.617735 -0.695750 -0.698915
C 2.127898 -0.347138 0.702540
C 3.248441 0.519013 -1.389276
N 3.985395 0.178310 -2.594883
C 3.197955 0.084640 -3.817500
C 2.962538 1.449644 -4.449538
O 4.182961 2.117928 -4.693769
C 5.000006 2.279857 -3.540547
C 4.478522 3.385365 -2.627116
C 5.209410 0.921561 -2.852947
H 0.503395 0.378358 -1.993066
H -0.171097 -0.618133 -0.669454
H -0.205671 -1.217575 -2.347038
H 3.407525 -1.459749 -0.618555
H 1.447847 0.519404 0.702192
H 2.983220 -0.099388 1.348567
H 1.599724 -1.203242 1.149178
H 3.952501 0.964963 -0.670561
H 2.466564 1.288079 -1.557059
H 2.246058 -0.419009 -3.607456
H 3.749091 -0.544134 -4.540279
H 2.299487 2.059172 -3.804404
H 2.460935 1.343625 -5.423431
H 5.977793 2.602997 -3.933771
H 3.494840 3.151260 -2.196155
H 4.386738 4.325307 -3.192615
H 5.178542 3.551912 -1.794114
H 5.771156 1.055577 -1.915768
H 5.838287 0.308840 -3.523909