28
H17 C9 N1 O1
C 0.535450 -0.936729 -0.214034
C 1.752611 -0.891978 -0.756431
C 2.904888 -1.770695 -0.359443
N 4.075661 -0.984355 -0.003590
C 3.931179 -0.289134 1.267715
C 4.549217 1.099247 1.232134
O 4.378282 1.696016 2.486144
C 4.903650 2.987144 2.561885
C 5.355399 -1.639594 -0.112728
C 5.594017 -3.097852 0.205046
C 5.731135 -2.580898 -1.212160
H -0.270639 -0.283362 -0.561013
H 0.298320 -1.634190 0.597458
H 1.968915 -0.175002 -1.558471
H 3.156106 -2.399516 -1.227484
H 2.590410 -2.460153 0.452127
H 4.370416 -0.866110 2.106771
H 2.861117 -0.169507 1.493289
H 4.057269 1.693989 0.435291
H 5.626166 1.044761 0.971513
H 4.724270 3.371544 3.576274
H 4.423264 3.674224 1.837505
H 5.994833 3.003401 2.369922
H 6.162002 -0.968543 0.196019
H 4.721315 -3.722809 0.415831
H 6.496729 -3.378275 0.754942
H 4.974256 -2.890506 -1.937807
H 6.733953 -2.481147 -1.636413