23
H13 C6 N1 O1 F2
C 2.615928 -0.842589 -0.963695
C 2.327451 0.397067 -0.122640
N 1.022952 0.952189 -0.472723
C 0.160649 1.403017 0.591688
C -0.742591 0.289287 1.071538
F -0.009442 -0.722900 1.621248
F -1.563140 0.749421 2.055302
C 3.462376 1.436456 -0.248016
C 3.244322 2.681117 0.603014
O 4.720079 0.853845 0.030625
H 3.592771 -1.278600 -0.712640
H 2.621397 -0.585701 -2.036265
H 1.833900 -1.598809 -0.799190
H 2.282468 0.090967 0.937148
H 1.100890 1.645285 -1.210646
H -0.496355 2.204218 0.222539
H 0.694350 1.801080 1.476294
H -1.359278 -0.141013 0.266939
H 3.512913 1.739147 -1.310108
H 3.164905 2.414992 1.670532
H 2.330956 3.221292 0.314876
H 4.096873 3.366136 0.482984
H 4.723380 0.606765 0.964267