21
H13 C6 N1 O1
C 0.850165 -0.432491 0.761731
C 1.912520 -0.012417 -0.244596
N 3.071225 -0.898610 -0.243888
C 4.284237 -0.313723 -0.803094
C 4.292170 -0.309524 -2.328650
O 4.092538 -1.610777 -2.835922
C 2.885030 -2.173267 -2.370738
C 2.844373 -2.209605 -0.845372
H 0.040134 0.312291 0.794727
H 1.285702 -0.518372 1.769515
H 0.393475 -1.400804 0.504729
H 2.273763 0.993232 0.023568
H 1.443834 0.091016 -1.245965
H 5.148143 -0.909403 -0.456953
H 4.414522 0.710535 -0.420365
H 5.262020 0.043854 -2.710230
H 3.509039 0.375133 -2.714576
H 2.820511 -3.192111 -2.781260
H 2.022116 -1.598576 -2.764977
H 3.635271 -2.895025 -0.492361
H 1.883153 -2.623215 -0.506173