31
H19 C10 N1 O1
C 0.959707 0.865265 0.132158
C 1.975007 -0.000543 0.028992
C 2.035047 -1.046922 -1.048299
C 3.122070 0.021385 1.028497
N 4.464706 0.190660 0.522015
C 5.186324 -0.957476 0.009879
C 6.689065 -0.785560 0.222044
C 7.171987 0.535816 -0.372554
C 6.351343 1.703940 0.174303
C 4.843388 1.486573 -0.016063
C 4.415401 1.707343 -1.481365
O 4.793231 2.970899 -1.977212
H 0.111546 0.843290 -0.560331
H 0.940727 1.627188 0.918942
H 1.110396 -1.074905 -1.642934
H 2.205638 -2.046506 -0.615623
H 2.875021 -0.853219 -1.734691
H 3.098870 -0.933031 1.585532
H 2.922395 0.820147 1.764022
H 4.999925 -1.146483 -1.069378
H 4.829703 -1.852838 0.542938
H 7.226638 -1.636807 -0.225918
H 6.897715 -0.797781 1.305969
H 7.081954 0.496189 -1.472363
H 8.240951 0.690390 -0.155337
H 6.643279 2.646657 -0.311326
H 6.550121 1.811905 1.253775
H 4.311423 2.249189 0.582787
H 3.324116 1.559054 -1.563358
H 4.892770 0.961547 -2.136092
H 4.355708 3.640494 -1.437710