36
H23 C11 N1 O1
C -1.071647 5.425783 -0.015761
C -1.700028 5.709254 1.351915
C -3.072482 5.045901 1.477834
C -0.841432 5.463130 2.603948
C 0.481283 6.257489 2.709855
C 1.240117 5.538020 3.844992
C 0.317158 4.343150 4.195038
N -0.489407 4.086445 3.002782
C 0.238073 3.285446 2.009293
C -0.613869 2.157308 1.432512
C 0.036796 1.368790 0.292023
C 1.359859 0.713000 0.669963
O 0.179099 2.160171 -0.878660
H -1.699141 5.869716 -0.805313
H -0.986827 4.352724 -0.238364
H -0.069268 5.871265 -0.111464
H -1.871666 6.800604 1.384558
H -2.993215 3.948702 1.476715
H -3.727137 5.334750 0.640244
H -3.574118 5.340422 2.413342
H -1.475687 5.826805 3.432860
H 0.291530 7.320455 2.920942
H 1.045152 6.209194 1.765356
H 1.416270 6.184788 4.717335
H 2.222755 5.181061 3.500930
H -0.354720 4.620702 5.024411
H 0.863078 3.441012 4.504751
H 1.119661 2.841548 2.497443
H 0.642555 3.914208 1.196227
H -1.561597 2.568819 1.054836
H -0.876059 1.463495 2.248850
H -0.669548 0.572811 0.004874
H 2.133354 1.467104 0.890274
H 1.725643 0.088767 -0.159082
H 1.245584 0.075484 1.560179
H 0.867521 2.815676 -0.712819