23
H13 C7 N1 O2
C 1.000094 0.089310 0.137980
O 2.418158 0.090040 0.258233
C 2.974929 -0.974107 0.830134
O 2.346623 -1.908224 1.263359
C 4.481639 -0.885204 0.817297
N 5.062732 -1.800951 1.764450
C 6.499383 -1.947260 1.629497
C 7.036561 -2.931987 2.637318
C 6.948734 -4.407231 2.349125
C 8.284054 -3.713024 2.340547
H 0.734303 1.025990 -0.365157
H 0.522689 0.049525 1.127749
H 0.657204 -0.766734 -0.461340
H 4.777936 0.152819 1.039541
H 4.789083 -1.068488 -0.237754
H 4.614460 -2.710979 1.665224
H 6.968199 -0.959758 1.786741
H 6.799975 -2.271991 0.608168
H 6.881391 -2.635372 3.680046
H 6.527241 -4.708984 1.384896
H 6.721261 -5.085135 3.176015
H 8.768088 -3.550794 1.372590
H 8.975332 -3.910791 3.163951