27
H17 C8 N1 O1
C 3.021145 4.838793 -5.370317
C 2.969931 3.630272 -4.437619
C 2.724999 2.340874 -5.220857
C 4.246791 3.556211 -3.594399
N 4.216274 2.470186 -2.630989
C 5.185326 2.514617 -1.564117
C 5.084288 3.587090 -0.456396
C 6.619579 3.521806 -0.320360
C 6.664317 2.941677 -1.749553
O 7.629080 2.004870 -2.117399
H 2.087539 4.937610 -5.946146
H 3.849297 4.745135 -6.093278
H 3.170929 5.775613 -4.809953
H 2.129391 3.766384 -3.733647
H 3.569036 2.125509 -5.898786
H 1.813924 2.418086 -5.835195
H 2.596131 1.475552 -4.552077
H 4.355226 4.506189 -3.045572
H 5.120017 3.497712 -4.280685
H 4.288524 1.578082 -3.113758
H 5.189734 1.522751 -1.078547
H 4.472673 3.344038 0.424084
H 4.757058 4.557828 -0.858960
H 6.925346 2.759846 0.415330
H 7.169395 4.453332 -0.123758
H 6.732504 3.763932 -2.479530
H 7.570857 1.264463 -1.501127