39
H25 C12 N1 O1
C 14.829498 1.019249 2.287507
C 13.609431 1.126924 1.758546
C 13.236411 0.755326 0.352756
C 12.180246 -0.350888 0.309832
C 11.646711 -0.706257 -1.082285
C 12.760718 -1.112143 -2.073563
C 13.253006 0.008829 -2.981899
N 10.662782 -1.783247 -0.943434
C 9.407619 -1.655042 -1.683451
C 8.546494 -0.479815 -1.198285
C 9.630618 -1.620658 -3.203674
C 8.335543 -1.423318 -3.986945
O 10.262812 -2.830497 -3.568555
C 10.894218 -2.822038 -4.814656
H 15.030493 1.302498 3.325235
H 15.676131 0.644648 1.700641
H 12.790345 1.502776 2.386745
H 14.140204 0.447404 -0.196607
H 12.836232 1.648707 -0.159898
H 11.323840 -0.050730 0.939263
H 12.598453 -1.266532 0.766869
H 11.164480 0.208845 -1.482628
H 12.359658 -1.929751 -2.687448
H 13.607138 -1.547134 -1.512173
H 12.425113 0.415643 -3.586482
H 14.023874 -0.354403 -3.679793
H 13.687732 0.847946 -2.417635
H 10.426599 -1.905460 0.037786
H 8.844533 -2.585031 -1.487618
H 8.965982 0.493390 -1.500683
H 8.490318 -0.496803 -0.098692
H 7.517029 -0.534978 -1.580383
H 10.308499 -0.774516 -3.442012
H 7.588568 -2.182256 -3.703338
H 8.519787 -1.510422 -5.067598
H 7.906569 -0.426572 -3.814455
H 11.466677 -3.756681 -4.906091
H 11.598807 -1.972995 -4.915851
H 10.183904 -2.775766 -5.661467