26
H17 C8 N1
C 4.905224 -1.666108 1.915873
C 4.606021 -0.296341 1.306475
C 5.136695 0.819635 2.207170
C 5.143646 -0.126917 -0.121111
C 4.631997 -1.123232 -1.165671
C 4.814733 -0.619761 -2.610912
C 5.044339 -1.903808 -3.407980
N 5.861498 -2.746319 -2.537782
C 5.346963 -2.513106 -1.183843
H 4.531409 -1.721645 2.950942
H 5.991027 -1.859737 1.943705
H 4.430458 -2.483937 1.353447
H 3.506507 -0.190304 1.251885
H 6.233947 0.756194 2.305325
H 4.707943 0.756480 3.220022
H 4.895569 1.815228 1.801524
H 6.250223 -0.160384 -0.104908
H 4.878650 0.891575 -0.455161
H 3.554799 -1.284753 -0.987382
H 5.717833 0.012539 -2.675678
H 3.961548 -0.020055 -2.963153
H 5.538271 -1.744645 -4.377980
H 4.080288 -2.407187 -3.605045
H 6.816400 -2.392394 -2.578562
H 6.171559 -2.568223 -0.458255
H 4.631242 -3.309244 -0.916405