23
H13 C7 N1 F2
C 0.824039 -0.730086 0.642436
C 2.082952 -0.183567 -0.014004
C 3.280444 -1.158420 0.000025
C 3.843993 -0.314596 1.160112
C 5.305995 0.079489 1.152187
N 2.898610 0.748753 0.796297
C 2.341039 1.590087 1.817591
C 1.783259 2.861905 1.228030
F 0.740867 2.584047 0.391209
F 1.286155 3.654651 2.215537
H 0.385178 -1.510909 0.002057
H 0.068971 0.058759 0.777619
H 1.036576 -1.178599 1.626240
H 1.823435 0.231811 -1.002652
H 3.900970 -1.094064 -0.905407
H 3.051129 -2.211252 0.215416
H 3.589567 -0.772647 2.137887
H 5.579860 0.522706 0.181838
H 5.947907 -0.797306 1.333190
H 5.518773 0.818846 1.941109
H 3.148489 1.884882 2.505924
H 1.546098 1.114268 2.428246
H 2.530583 3.433612 0.656155