29
H18 C8 N1 O1 F1
C 1.312150 -0.039067 0.565968
C 2.736342 -0.245828 0.066173
C 2.955703 -0.286008 -1.456309
C 2.380433 -1.565941 -2.060543
C 2.403749 0.975068 -2.159891
N 1.001936 0.896962 -2.524827
C 0.514681 2.072850 -3.212246
C -0.898486 1.833220 -3.702262
F -1.362040 2.959405 -4.363056
O 4.381553 -0.246015 -1.561703
C 4.972383 -0.614172 -2.774400
H 1.282697 -0.118706 1.663234
H 0.613523 -0.791596 0.167009
H 0.924831 0.960082 0.310413
H 3.141802 -1.185694 0.476146
H 3.379092 0.561713 0.453028
H 1.310532 -1.657742 -1.831016
H 2.899122 -2.443895 -1.644564
H 2.477450 -1.583917 -3.156191
H 2.973273 1.116675 -3.093005
H 2.636799 1.854151 -1.520434
H 0.431886 0.735610 -1.697455
H 1.160643 2.271979 -4.083843
H 0.528973 2.991576 -2.587921
H -1.579458 1.626335 -2.859712
H -0.927137 0.979616 -4.397711
H 6.037964 -0.349447 -2.706796
H 4.550834 -0.082136 -3.647561
H 4.905720 -1.699390 -2.972625