26
H16 C8 N2
C 0.980328 0.179548 0.075874
C 2.485845 -0.058268 0.105301
C 2.801929 -1.550097 0.178720
N 3.082117 0.547014 -1.082589
C 4.527590 0.677449 -1.059362
C 5.028499 1.411664 -2.295968
C 6.546392 1.542579 -2.332605
C 7.020233 2.284111 -3.588255
C 8.472463 2.426644 -3.651026
N 9.623560 2.532941 -3.687860
H 0.494933 -0.253630 0.963276
H 0.535588 -0.279840 -0.822031
H 0.749061 1.257067 0.057426
H 2.887739 0.415257 1.029596
H 2.442654 -2.060490 -0.730081
H 2.311209 -2.006838 1.051938
H 3.881772 -1.740378 0.272182
H 2.682053 1.477258 -1.200456
H 4.983567 -0.326469 -1.034093
H 4.891040 1.202522 -0.147524
H 4.573532 2.417766 -2.331434
H 4.674905 0.876668 -3.193461
H 7.009520 0.542855 -2.305566
H 6.899209 2.081434 -1.438277
H 6.584508 3.294904 -3.632470
H 6.697935 1.754460 -4.498824