20
H12 C6 O2
C 0.969809 0.026479 0.052147
C 2.491857 0.110667 0.043700
C 3.008300 0.259412 -1.391575
C 3.051161 1.217098 0.946993
C 4.459156 0.715313 1.264982
O 4.403936 -0.699840 1.169567
C 3.131671 -1.124824 0.724253
O 3.253364 -2.257413 -0.054856
H 0.522503 0.920510 -0.410309
H 0.578713 -0.055775 1.078809
H 0.626063 -0.854604 -0.513226
H 2.642140 1.200416 -1.829958
H 2.650845 -0.562496 -2.031891
H 4.109087 0.277078 -1.441368
H 2.452090 1.282719 1.869570
H 3.048189 2.208273 0.470291
H 4.789093 1.005048 2.275815
H 5.204446 1.102341 0.547660
H 2.513761 -1.434401 1.589657
H 3.824407 -2.043709 -0.805021