27
H17 C8 N1 O1
C 2.838402 0.519575 -1.542404
C 2.564167 0.044028 -0.114528
C 1.076082 -0.305814 -0.002632
O 0.742592 -1.189266 1.038375
N 3.015518 1.063123 0.844260
C 2.364443 1.081660 2.136498
C 4.465365 1.062949 0.997915
C 5.033902 2.392464 1.443009
C 6.370902 2.838256 0.916807
C 5.111221 3.518174 0.452066
H 3.883945 0.826497 -1.684891
H 2.200526 1.386223 -1.780920
H 2.627901 -0.279322 -2.269840
H 3.106930 -0.912007 0.058490
H 0.479972 0.627494 0.033742
H 0.791283 -0.820135 -0.932691
H 0.816314 -0.722293 1.876383
H 1.281914 1.255344 2.044427
H 2.748198 1.923383 2.730871
H 2.537114 0.160718 2.738973
H 4.921612 0.810375 0.030268
H 4.787825 0.265963 1.705830
H 4.817379 2.678416 2.477408
H 6.885857 2.178044 0.211978
H 7.035734 3.384442 1.591357
H 4.762917 3.310619 -0.564594
H 4.911044 4.534772 0.800964