27
H14 C8 N1 O1 F3
C 1.394436 0.680663 -0.122209
C 2.537299 0.044464 0.659387
C 3.065898 -1.243732 0.048522
C 2.047581 -2.386717 0.042904
N 2.625711 -3.638973 -0.427951
C 2.691888 -3.788484 -1.861719
C 1.628255 -4.750574 -2.344115
F 1.772365 -5.971306 -1.812335
F 0.390874 -4.336010 -2.032181
F 1.668716 -4.894162 -3.677467
C 3.841305 -3.962171 0.305918
C 4.822277 -2.797903 0.298662
O 4.211532 -1.627400 0.791146
H 1.113855 1.649191 0.318253
H 0.492623 0.049036 -0.125227
H 1.679794 0.862288 -1.171157
H 2.222969 -0.164807 1.696266
H 3.384113 0.746491 0.725184
H 3.372387 -1.045728 -1.001922
H 1.178152 -2.132458 -0.578938
H 1.681810 -2.532562 1.075053
H 3.658894 -4.199274 -2.189288
H 2.545400 -2.843790 -2.412555
H 4.303239 -4.866935 -0.114985
H 3.566315 -4.187660 1.350866
H 5.198933 -2.629237 -0.731616
H 5.688389 -3.009829 0.943482