19
H11 C6 N1 O1
C 3.260634 -0.625475 3.185746
C 2.600898 0.226591 2.400853
C 3.085438 0.766947 1.077289
C 2.051420 0.396602 -0.005253
O 1.793940 -0.981272 -0.110256
N 4.479854 0.410697 0.846842
C 4.854805 -0.697944 -0.010545
C 5.109328 0.709925 -0.417587
H 2.824427 -0.983947 4.122637
H 4.263085 -0.977469 2.925747
H 1.598522 0.564294 2.693071
H 3.056378 1.869856 1.142731
H 1.126262 0.962396 0.219819
H 2.390211 0.736923 -0.995960
H 1.689480 -1.334211 0.783183
H 4.057651 -1.236132 -0.531137
H 5.677795 -1.322895 0.354091
H 4.495056 1.116642 -1.229969
H 6.118785 1.132139 -0.360582