30
H19 C8 N1 O2
C 0.919274 -0.489540 0.033179
O 2.312810 -0.518160 -0.006249
C 2.899230 -0.395144 1.254863
C 4.421604 -0.330392 1.135541
C 4.924013 1.074969 0.815608
O 4.414515 1.521252 -0.404989
C 4.828491 2.813209 -0.729622
N 5.001724 -0.762852 2.398421
C 6.436373 -1.079218 2.393491
C 7.224489 -0.073833 3.231951
C 6.665274 -2.506262 2.884263
H 0.545063 -0.614403 -0.993191
H 0.533638 0.470163 0.431118
H 0.502107 -1.304904 0.658073
H 2.626443 -1.270647 1.882660
H 2.521074 0.503253 1.785855
H 4.704331 -0.994905 0.290291
H 6.032862 1.076142 0.787088
H 4.625719 1.750083 1.646119
H 4.388616 3.080322 -1.701338
H 5.931256 2.889236 -0.812270
H 4.495729 3.557389 0.021131
H 4.483887 -1.570957 2.732693
H 6.809871 -1.024787 1.353010
H 6.896386 -0.114705 4.283624
H 7.065431 0.953591 2.870969
H 8.305705 -0.283836 3.199058
H 6.280962 -2.628291 3.911248
H 7.736891 -2.756625 2.894598
H 6.150430 -3.233459 2.236620