39
H25 C12 N1 O1
C 1.522003 -0.488563 -3.048177
O 2.717154 -0.067457 -2.455331
C 2.900740 -0.477790 -1.110458
C 2.172536 0.455792 -0.153957
C 4.415616 -0.538210 -0.882652
C 4.775294 -0.981722 0.530080
N 4.977124 -1.448809 -1.873307
C 6.403822 -1.400059 -2.018501
C 7.104137 -0.190777 -2.606155
C 7.000677 -1.481238 -3.388314
C 8.183863 -2.358604 -3.775724
C 9.558770 -2.093334 -3.141635
C 9.625583 -2.398839 -1.643560
C 10.624891 -2.900297 -3.886546
H 1.513609 -0.119686 -4.083876
H 0.627371 -0.088879 -2.535683
H 1.440283 -1.592391 -3.069303
H 2.504840 -1.507302 -0.994199
H 2.623219 1.460759 -0.173426
H 2.202319 0.077251 0.877627
H 1.113235 0.548434 -0.436163
H 4.800989 0.495457 -1.030529
H 4.340419 -1.970481 0.749926
H 4.419689 -0.264311 1.283268
H 5.866478 -1.058678 0.646900
H 4.536072 -1.228733 -2.764499
H 6.945673 -1.921779 -1.223447
H 8.075525 0.100486 -2.196365
H 6.477056 0.645822 -2.929288
H 6.239528 -1.450856 -4.177758
H 7.913791 -3.417254 -3.604204
H 8.309460 -2.259323 -4.867005
H 9.792742 -1.023039 -3.282794
H 9.289291 -3.428941 -1.436549
H 9.008233 -1.716527 -1.042124
H 10.659776 -2.305912 -1.275168
H 10.437797 -3.983259 -3.787886
H 11.630677 -2.698519 -3.485318
H 10.636898 -2.660534 -4.961671