17
H11 C5 N1
C 0.956207 -0.009858 0.455065
C 2.339276 -0.043465 -0.187018
C 3.122561 -1.342279 -0.038502
C 3.357003 -1.976831 1.349175
N 3.163669 -3.307352 0.748022
C 2.496059 -2.701765 -0.416689
H 0.483624 0.972503 0.300863
H 1.002302 -0.184338 1.541596
H 0.283669 -0.767963 0.023801
H 2.951971 0.774077 0.231342
H 2.242642 0.177726 -1.264235
H 4.089018 -1.231583 -0.554692
H 2.573052 -1.698233 2.077285
H 4.340260 -1.811574 1.822016
H 2.579429 -3.939247 1.292020
H 1.393089 -2.692435 -0.342940
H 2.772028 -3.132013 -1.394649