14
H7 C5 N1 O1
N 4.742149 0.243231 -2.458807
C 4.282243 0.166974 -1.400421
C 3.706652 0.066006 -0.056588
C 4.197111 -1.188887 0.688606
C 5.520022 -0.719178 1.312223
O 5.509824 0.702111 1.279869
C 4.247133 1.162321 0.874211
H 2.612628 0.102373 -0.155637
H 4.314956 -2.065661 0.038900
H 3.458935 -1.433230 1.465014
H 6.394096 -1.071925 0.740883
H 5.624195 -1.080286 2.349124
H 4.357946 2.142688 0.389931
H 3.549808 1.268614 1.727042