34
H21 C10 N1 O2
C 4.159048 2.638450 1.367096
C 4.448308 1.160122 1.591730
C 3.222884 0.274440 1.442700
C 3.530636 -1.209048 1.645088
N 2.340608 -2.045182 1.597341
C 1.841675 -2.355785 0.267232
C 1.283916 -3.769246 0.209186
O 0.775055 -4.000612 -1.073646
C 0.240618 -5.279711 -1.236773
C 1.331417 -1.537360 2.517722
C 1.047129 -0.045230 2.324449
C 0.104631 0.509549 3.370986
O 2.257586 0.687751 2.393496
H 5.068552 3.246015 1.490876
H 3.405781 3.001425 2.081503
H 3.771410 2.817238 0.350900
H 4.866737 1.006084 2.601423
H 5.210734 0.809145 0.876760
H 2.801358 0.410578 0.422802
H 4.002181 -1.326103 2.638194
H 4.254801 -1.555183 0.892056
H 2.669914 -2.283779 -0.454313
H 1.059279 -1.655013 -0.085984
H 0.489799 -3.901071 0.973171
H 2.088707 -4.491118 0.457308
H -0.134780 -5.366070 -2.266663
H -0.600675 -5.470199 -0.541181
H 0.998934 -6.070913 -1.073778
H 1.686657 -1.688403 3.553432
H 0.399850 -2.112607 2.404791
H 0.601627 0.101769 1.318481
H 0.525761 0.373413 4.379668
H -0.867823 -0.003240 3.326930
H -0.062018 1.584685 3.208308