23
H13 C7 N1 F2
C 1.104925 0.160246 -0.131048
C 2.600006 0.253319 0.017671
F 3.139382 -1.002155 -0.069508
F 3.115778 0.937453 -1.060761
C 3.084076 0.926060 1.288528
N 4.523353 1.026814 1.319172
C 5.042714 1.586477 2.553719
C 6.545648 1.697828 2.502719
C 7.177772 2.876635 1.811143
C 7.253270 2.748531 3.308708
H 0.865897 -0.346287 -1.076600
H 0.661310 1.164635 -0.136943
H 0.680204 -0.414066 0.703337
H 2.738069 0.313985 2.136948
H 2.562389 1.903015 1.367417
H 4.835206 1.603409 0.539032
H 4.745701 0.926874 3.388056
H 4.613489 2.587294 2.781814
H 7.061628 0.738731 2.387558
H 6.508329 3.638847 1.399633
H 8.088116 2.709837 1.229350
H 6.640431 3.426931 3.910142
H 8.215866 2.490647 3.758022