30
H17 C8 N1 O2 F2
C 1.149234 -2.280576 -1.299708
O 2.445083 -1.756610 -1.255500
C 2.788171 -1.100986 -0.047916
C 2.241657 0.318629 0.002088
C 4.305441 -1.139209 0.046524
N 4.775898 -2.506631 0.051820
C 6.212339 -2.636986 0.003732
C 6.619406 -4.111030 -0.057721
C 6.162460 -4.890462 1.170284
O 6.043602 -4.628409 -1.242070
C 8.138468 -4.200522 -0.228236
F 8.783439 -3.699683 0.857736
F 8.512075 -5.505051 -0.340867
H 1.026060 -2.789901 -2.266337
H 0.369089 -1.500533 -1.222611
H 0.976046 -3.018201 -0.492263
H 2.380907 -1.683575 0.802814
H 2.646466 0.916936 -0.829278
H 2.517952 0.805172 0.949789
H 1.143941 0.327857 -0.068849
H 4.617954 -0.635343 0.976686
H 4.724930 -0.543528 -0.794900
H 4.377828 -2.982562 -0.756471
H 6.657841 -2.181038 0.902803
H 6.660140 -2.117658 -0.872228
H 5.074611 -4.790900 1.276030
H 6.639227 -4.502859 2.081737
H 6.419533 -5.956300 1.074691
H 6.126986 -5.589984 -1.225620
H 8.490066 -3.666136 -1.124748