25
H15 C7 N1 O2
C 2.908775 0.262699 1.880434
C 2.394153 0.239950 0.449996
O 0.984163 0.328870 0.395936
C 2.864804 -0.998789 -0.323590
N 4.309843 -1.072325 -0.457141
C 4.857562 -0.268641 -1.546435
C 4.726831 -0.959059 -2.901262
O 5.306252 -2.245231 -2.877188
C 4.728913 -3.060315 -1.880871
C 4.870402 -2.416971 -0.505774
H 4.007188 0.221216 1.896674
H 2.527894 -0.609160 2.440279
H 2.579981 1.176242 2.398304
H 2.758771 1.139944 -0.073174
H 0.628130 -0.421277 0.888635
H 2.328577 -1.006176 -1.293920
H 2.520505 -1.890478 0.228311
H 5.928317 -0.089201 -1.345112
H 4.363211 0.713939 -1.576951
H 5.246904 -0.381146 -3.679796
H 3.659056 -1.030026 -3.193151
H 5.247535 -4.030384 -1.912263
H 3.657861 -3.241586 -2.108108
H 5.946368 -2.353634 -0.263229
H 4.395503 -3.046799 0.261877