15
H10 C4 O1
C 0.875376 0.056061 -0.004572
C 2.398634 0.024110 -0.038682
C 2.957674 -0.888693 -1.126232
C 4.479262 -0.928311 -1.155576
O 4.993045 -1.730815 -2.191625
H 0.504257 0.723984 0.788189
H 0.459481 -0.947501 0.182114
H 0.462742 0.412687 -0.962383
H 2.781905 -0.303244 0.943704
H 2.785195 1.047144 -0.190411
H 2.595804 -0.562801 -2.116973
H 2.577267 -1.916161 -0.975797
H 4.859833 -1.254174 -0.166373
H 4.873300 0.087654 -1.323757
H 4.679743 -2.631100 -2.045606