34
H21 C10 N1 O2
C 7.377991 2.064649 1.399467
C 7.124121 1.212551 2.640576
C 7.364233 -0.298061 2.471171
C 8.844902 -0.614114 2.260845
C 6.504781 -0.949085 1.361720
C 5.020269 -0.601511 1.481993
N 6.714653 -2.396980 1.360697
C 6.998182 -3.029545 0.092188
C 5.912540 -2.901282 -0.991359
C 7.242440 -4.507435 0.342136
O 6.732484 -5.145112 1.230470
O 8.047646 -5.038634 -0.575192
C 8.276343 -6.441012 -0.497640
H 7.218716 3.131503 1.620964
H 6.701262 1.799472 0.571528
H 8.410303 1.957955 1.030976
H 6.092885 1.383728 2.990097
H 7.774501 1.568626 3.457923
H 7.053390 -0.778892 3.417788
H 9.217251 -0.199200 1.309473
H 9.004549 -1.701285 2.233738
H 9.461305 -0.195727 3.072520
H 6.870890 -0.560430 0.394354
H 4.632457 -0.905096 2.469452
H 4.436250 -1.129495 0.713878
H 4.831106 0.475196 1.363039
H 5.953595 -2.882875 1.830112
H 7.934300 -2.608489 -0.309374
H 4.966186 -3.343547 -0.641605
H 6.216831 -3.412307 -1.917188
H 5.735495 -1.842979 -1.232360
H 8.936612 -6.691374 -1.335816
H 7.332389 -6.998288 -0.586469
H 8.763001 -6.706813 0.452006