30
H17 C9 N1 O1 F2
C 1.504443 -0.252557 1.612908
C 2.343033 -1.464670 1.230175
C 3.469448 -1.127910 0.258000
O 2.977991 -0.569274 -0.945173
C 4.385971 -2.315070 -0.079351
N 5.073606 -2.918819 1.039742
C 4.938889 -4.317678 1.319226
C 3.689802 -4.720361 2.080145
F 2.585852 -4.612888 1.284813
F 3.779238 -6.034013 2.431929
C 5.717799 -2.076149 1.989360
C 7.155360 -2.345109 2.346162
C 6.803287 -1.150242 1.507837
H 0.680498 -0.530981 2.287674
H 1.068810 0.219236 0.719345
H 2.116330 0.507609 2.125686
H 1.705321 -2.241166 0.773168
H 2.780330 -1.921394 2.132154
H 4.088671 -0.332822 0.707829
H 2.387033 -1.219810 -1.345500
H 5.101288 -1.942094 -0.839639
H 3.776885 -3.089603 -0.572452
H 5.794558 -4.654532 1.925630
H 4.950967 -4.911716 0.388199
H 3.512486 -4.126684 2.991000
H 5.098307 -1.677990 2.808830
H 7.643647 -3.184807 1.843926
H 7.464090 -2.186243 3.382617
H 7.053034 -1.191658 0.444327
H 6.864404 -0.155419 1.956492