36
H23 C11 N1 O1
C -1.857656 2.837235 -0.386322
C -0.405006 3.109985 -0.753755
C 0.348265 3.964270 0.273090
N 0.344868 3.271673 1.556523
C 0.915382 3.956005 2.708473
C 0.061315 5.152137 3.114599
C 1.084984 2.985356 3.887062
C 1.985905 1.794094 3.566889
O -0.190103 2.578924 4.330030
C -0.227079 2.037996 5.616571
C 1.738571 4.318137 -0.235824
C 1.910042 5.401321 -1.264070
C 2.397492 5.616431 0.142226
H -2.352507 2.213570 -1.146992
H -2.426688 3.777845 -0.302632
H -1.927814 2.321257 0.582101
H -0.355688 3.618261 -1.730377
H 0.136894 2.154241 -0.878347
H -0.211910 4.909676 0.391902
H 0.806715 2.373426 1.429046
H 1.941162 4.327151 2.500960
H -0.967042 4.826637 3.328135
H 0.029098 5.916451 2.324270
H 0.472011 5.629844 4.017671
H 1.574091 3.571743 4.692874
H 1.483826 1.085136 2.889739
H 2.256207 1.243668 4.480061
H 2.920984 2.132607 3.094994
H -1.282597 1.898150 5.892513
H 0.239759 2.711979 6.362185
H 0.275067 1.054645 5.687368
H 2.402775 3.450177 -0.333699
H 1.011352 5.941992 -1.578227
H 2.650053 5.256577 -2.055542
H 1.829752 6.305288 0.774853
H 3.475500 5.618025 0.325193