34
H21 C10 N1 O2
C 7.795069 10.638944 -0.537107
O 7.473662 9.339359 -0.137303
C 8.058385 8.309630 -0.906191
C 9.534728 8.119885 -0.578948
C 7.221361 7.063628 -0.632673
N 7.662118 5.925672 -1.415463
C 6.777237 4.779248 -1.322449
C 7.172308 3.694499 -2.329991
O 6.202376 2.674181 -2.474294
C 5.390496 2.326480 -1.383716
C 8.560114 3.121528 -2.074599
C 8.804017 1.951360 -1.161390
C 8.957349 1.794669 -2.651113
H 7.203302 11.334147 0.075988
H 7.546517 10.816640 -1.601835
H 8.863904 10.884269 -0.392366
H 7.961870 8.552952 -1.984242
H 9.661211 7.830414 0.476862
H 10.106626 9.042537 -0.757393
H 9.978390 7.339271 -1.215410
H 6.178912 7.297036 -0.903154
H 7.228235 6.871247 0.462558
H 8.591459 5.653114 -1.100954
H 5.756395 5.115291 -1.568556
H 6.736791 4.355940 -0.297078
H 7.213452 4.195354 -3.313218
H 4.853190 1.410064 -1.668592
H 4.635935 3.099633 -1.152057
H 5.955884 2.112637 -0.460782
H 9.343937 3.886025 -2.085245
H 7.945916 1.465217 -0.691731
H 9.707067 1.963966 -0.544970
H 8.176789 1.232699 -3.170376
H 9.963679 1.687714 -3.064971