20
H12 C6 O2
C 0.856199 0.001186 0.086363
C 2.363044 -0.076396 -0.102369
C 2.735667 -0.115198 -1.579595
C 3.207485 0.920075 0.719316
O 3.953770 -0.132779 1.337270
C 3.082940 -1.124115 0.788100
C 3.829954 -2.286919 0.163054
O 2.948890 -3.211380 -0.424454
H 0.442242 0.897663 -0.402961
H 0.585465 0.040407 1.153152
H 0.366538 -0.881837 -0.355497
H 2.304872 0.753762 -2.102381
H 2.352324 -1.030677 -2.055302
H 3.825383 -0.085475 -1.729807
H 2.631376 1.506580 1.458275
H 3.851633 1.607770 0.144872
H 2.402317 -1.528066 1.566532
H 4.468825 -2.751621 0.939666
H 4.502066 -1.927134 -0.629249
H 2.390378 -3.576427 0.272517