20
H12 C5 O3
C 1.021598 0.056881 -0.074507
C 2.547581 0.053180 -0.132571
C 3.082425 -1.170383 -0.872696
C 3.045270 1.347384 -0.761830
O 4.451710 1.392416 -0.707670
C 5.024489 2.405923 -1.448805
O 4.723398 3.669188 -0.945158
O 6.377165 2.194605 -1.345672
H 0.644648 -0.856736 0.410390
H 0.587412 0.099872 -1.087684
H 0.639359 0.920521 0.492524
H 2.935050 0.031498 0.901482
H 2.707624 -1.193786 -1.910354
H 2.763771 -2.102008 -0.379302
H 4.181392 -1.161239 -0.910378
H 2.614581 2.214976 -0.228340
H 2.701564 1.406686 -1.816093
H 4.668741 2.342225 -2.504091
H 3.983960 4.036824 -1.444011
H 6.814262 2.953563 -1.751375