23
H14 C7 O2
O 1.048742 -0.043175 0.085043
C 2.428124 0.204853 -0.061164
C 3.007130 -0.839177 -0.998198
C 4.527712 -0.793309 -1.141946
C 5.048410 0.530091 -1.717097
C 6.552426 0.470485 -1.955781
O 6.919837 -0.610742 -2.778294
C 6.544091 -1.850754 -2.227450
C 5.039396 -1.945140 -2.014247
H 0.679597 0.646143 0.647328
H 2.952757 0.151534 0.914474
H 2.605180 1.220202 -0.464197
H 2.536819 -0.727190 -1.991305
H 2.710338 -1.832737 -0.620776
H 4.972070 -0.916145 -0.135150
H 4.830695 1.373516 -1.042799
H 4.537913 0.736341 -2.674914
H 7.078654 0.399197 -0.980415
H 6.905729 1.385133 -2.454911
H 7.067693 -2.009854 -1.261179
H 6.892443 -2.628016 -2.923880
H 4.792951 -2.917538 -1.557169
H 4.536383 -1.909167 -2.996842