28
H18 C8 O2
C 1.832644 -0.688224 0.508451
O 2.975309 -0.228500 -0.148871
C 2.832881 0.686382 -1.212369
C 2.135430 0.019851 -2.397443
C 2.186398 2.024348 -0.742929
C 0.791903 2.448014 -1.234187
C -0.366329 1.670696 -0.608275
C 0.604584 3.946275 -0.980679
O 4.195939 0.926404 -1.506691
C 4.503421 1.590812 -2.697447
H 2.172936 -1.398101 1.276025
H 1.133505 -1.224301 -0.158635
H 1.275988 0.117184 1.019717
H 1.110163 -0.279055 -2.144718
H 2.702889 -0.878643 -2.681793
H 2.072164 0.690418 -3.265053
H 2.887317 2.815139 -1.048630
H 2.210788 2.034293 0.359973
H 0.753750 2.294795 -2.326163
H -0.381748 1.806821 0.486301
H -0.312909 0.591688 -0.810144
H -1.330396 2.031427 -1.001020
H 0.666823 4.172203 0.097523
H -0.378462 4.292240 -1.337453
H 1.377553 4.542079 -1.491625
H 5.563923 1.876241 -2.642485
H 3.914448 2.516395 -2.842269
H 4.368957 0.955739 -3.591560