29
H17 C9 N1 O2
C 0.695196 0.029722 -1.021777
C 1.998848 0.370198 -0.359038
O 2.125150 0.706086 0.793499
O 3.021467 0.244898 -1.209970
C 4.354163 0.501169 -0.733925
C 4.939347 -0.760397 -0.129433
C 5.117050 1.045459 -1.950047
N 6.497456 1.366003 -1.727993
C 7.543714 0.375521 -1.959536
C 8.672913 0.786733 -1.005549
C 8.389833 2.264646 -0.722029
C 6.865702 2.291571 -0.675701
H -0.137524 0.244513 -0.342369
H 0.690065 -1.039100 -1.284114
H 0.582058 0.600383 -1.954378
H 4.290155 1.278146 0.042613
H 4.990976 -1.568726 -0.875131
H 4.327947 -1.100149 0.719440
H 5.954450 -0.564084 0.245923
H 4.569108 1.942007 -2.296293
H 5.051300 0.305439 -2.764621
H 7.879584 0.399395 -3.014869
H 7.210723 -0.657765 -1.759459
H 9.672775 0.604906 -1.425147
H 8.596878 0.213542 -0.067183
H 8.751289 2.892526 -1.552787
H 8.854813 2.626129 0.206437
H 6.444104 3.294884 -0.863602
H 6.514839 1.978165 0.332286