24
H13 C7 N1 O1 F2
O 1.035806 0.325754 0.051891
C 2.425611 0.152097 0.164304
C 2.846138 -0.964823 -0.772521
N 4.278481 -1.181085 -0.707480
C 4.768273 -2.168724 -1.631115
C 6.262812 -2.529473 -1.538172
C 5.897938 -4.008690 -1.798861
C 6.090612 -4.424700 -3.230338
F 7.420132 -4.508525 -3.522247
F 5.572045 -5.669626 -3.432748
C 4.428809 -3.676947 -1.453046
H 0.772309 1.033179 0.649775
H 2.719792 -0.112496 1.200312
H 2.983109 1.070205 -0.104500
H 2.576422 -0.679677 -1.803818
H 2.251503 -1.871125 -0.530352
H 4.536664 -1.456775 0.240454
H 4.508988 -1.845884 -2.653450
H 6.640236 -2.394875 -0.513552
H 6.956717 -2.041038 -2.238683
H 6.398249 -4.758250 -1.167124
H 5.626802 -3.742994 -3.962403
H 4.209323 -3.910822 -0.400442
H 3.646200 -4.117298 -2.089293