26
H14 C7 O5
C 1.023467 -0.043382 -0.001949
O 2.420058 -0.064250 0.031928
C 2.938321 -0.396858 1.285589
C 4.449759 -0.379914 1.193669
O 4.968249 -0.714513 2.450118
C 6.364003 -0.725136 2.498542
C 6.763172 -1.104892 3.908098
O 8.185961 -1.106116 3.950842
C 8.742779 -1.424972 5.112289
O 8.148727 -1.712141 6.119608
O 10.058527 -1.373499 4.974511
C 10.824362 -1.687483 6.131878
H 0.710872 0.226190 -1.020782
H 0.603419 0.701306 0.702242
H 0.588338 -1.030664 0.248712
H 2.599273 -1.402292 1.608324
H 2.607955 0.322572 2.062245
H 4.790843 0.625332 0.876101
H 4.782822 -1.099666 0.419911
H 6.783187 0.268629 2.244919
H 6.786695 -1.454543 1.779650
H 6.374368 -2.102061 4.165747
H 6.361814 -0.379009 4.632009
H 11.875153 -1.594783 5.835001
H 10.622695 -2.714283 6.469749
H 10.605572 -0.985643 6.949599