27
H17 C9 N1
C 1.193611 0.402997 0.188638
C 2.652350 -0.047904 0.073815
N 2.901951 -1.462012 0.242812
C 2.751501 -2.019735 1.584634
C 2.440663 -3.510487 1.355306
C 2.712574 -3.739697 -0.132637
C 4.128370 -4.196320 -0.569660
C 3.473357 -5.129386 -1.610296
C 2.134646 -4.974681 -0.855154
C 2.320750 -2.382089 -0.711489
H 1.123929 1.497042 0.084752
H 0.758157 0.132995 1.163797
H 0.567147 -0.045682 -0.598121
H 3.258996 0.492527 0.820883
H 3.043400 0.254471 -0.913599
H 1.935889 -1.538646 2.159173
H 3.677937 -1.868090 2.167309
H 1.376492 -3.713741 1.558028
H 3.031569 -4.180111 1.997717
H 4.635659 -4.761181 0.228037
H 4.809835 -3.411511 -0.933760
H 3.883535 -6.145729 -1.704645
H 3.437569 -4.674155 -2.611461
H 1.958491 -5.805571 -0.154037
H 1.221914 -4.819452 -1.452559
H 1.210416 -2.319825 -0.778505
H 2.720061 -2.206496 -1.725387