30
H19 C9 N1 O1
C 0.792254 0.114184 -0.176107
C 2.301996 0.031747 0.058920
C 3.051789 1.149552 -0.679224
O 2.884118 1.075750 -2.073740
N 2.715710 -0.033036 1.460347
C 2.315065 1.125914 2.250776
C 3.076208 1.189335 3.568523
C 2.849568 -0.088179 4.367323
C 3.158844 -1.306552 3.505040
C 2.412687 -1.286608 2.164001
C 2.772161 -2.529773 1.357397
H 0.583844 0.113772 -1.255844
H 0.366591 1.038802 0.245467
H 0.265685 -0.741805 0.274005
H 2.662570 -0.894297 -0.415479
H 4.117886 1.099238 -0.384969
H 2.676511 2.142134 -0.384840
H 3.251715 0.235251 -2.372119
H 1.224147 1.110338 2.473024
H 2.503896 2.042589 1.675162
H 2.753599 2.074855 4.139168
H 4.151709 1.310713 3.353149
H 1.793711 -0.130141 4.689469
H 3.461214 -0.097168 5.283658
H 2.899881 -2.232469 4.043164
H 4.242152 -1.346521 3.292309
H 1.322612 -1.335783 2.395017
H 3.814907 -2.477837 1.003686
H 2.117298 -2.682287 0.487719
H 2.674521 -3.420188 1.996347