37
H23 C12 N1 O1
C 1.219596 0.107087 0.293329
C 2.293589 0.014182 -0.492823
C 3.063737 -1.243870 -0.767527
C 4.520288 -1.154728 -0.303238
C 5.297793 -2.431660 -0.608799
N 6.713875 -2.335256 -0.291069
C 6.956503 -2.107876 1.133307
C 7.316406 -0.682866 1.458480
C 6.780680 0.041407 2.441302
C 7.596911 -3.355468 -0.866152
C 7.171444 -3.851335 -2.242731
C 9.009549 -2.773458 -0.957693
O 9.908956 -3.780957 -1.325087
C 11.220495 -3.326120 -1.474811
H 0.710681 1.062027 0.456506
H 0.805720 -0.771087 0.802344
H 2.675565 0.922359 -0.978566
H 3.048493 -1.443943 -1.854232
H 2.566757 -2.099516 -0.279871
H 4.535260 -0.935377 0.776145
H 5.024238 -0.308375 -0.801271
H 5.185711 -2.629574 -1.682741
H 4.813547 -3.284703 -0.079433
H 7.787261 -2.752918 1.468239
H 6.084494 -2.420352 1.738745
H 8.099773 -0.246427 0.825822
H 5.988980 -0.363381 3.082458
H 7.109185 1.065132 2.644095
H 7.654445 -4.241521 -0.195359
H 7.029590 -3.011106 -2.941901
H 6.247671 -4.445776 -2.212628
H 7.970108 -4.492253 -2.640465
H 9.315973 -2.329451 0.009255
H 9.005866 -1.949182 -1.701835
H 11.849324 -4.182234 -1.758289
H 11.619586 -2.894798 -0.535592
H 11.303988 -2.553369 -2.264090