30
H19 C9 N1 O1
C 1.383938 0.668006 -0.007058
C 2.783847 0.121901 -0.246607
N 3.150892 -0.924178 0.694810
C 2.415240 -2.176025 0.519645
C 1.719044 -2.648768 1.789567
C 4.585018 -1.102803 0.816970
C 4.970182 -1.927802 2.026039
O 6.145874 -1.544779 2.725890
C 4.892742 -1.424228 3.404511
C 4.433172 -0.017794 3.706281
C 4.696700 -2.408057 4.533031
H 1.164758 1.485290 -0.711473
H 1.294676 1.059397 1.018553
H 0.609266 -0.102341 -0.145019
H 3.506399 0.944835 -0.128128
H 2.876637 -0.220597 -1.302018
H 3.092444 -2.969258 0.146370
H 1.658951 -2.045595 -0.271353
H 2.440773 -2.835792 2.598883
H 1.164133 -3.583258 1.608249
H 1.006122 -1.888001 2.144138
H 5.058257 -0.115592 0.916194
H 5.028422 -1.577205 -0.088270
H 4.870650 -3.015330 1.896209
H 4.649962 0.675681 2.883998
H 4.935724 0.355342 4.612919
H 3.348350 -0.007097 3.890937
H 5.037508 -3.413521 4.246817
H 3.634137 -2.465434 4.815468
H 5.264420 -2.088237 5.421559