26
H15 C7 N1 O1 F2
C 0.892410 0.076376 0.128629
C 2.413963 0.043296 0.074152
C 3.002957 1.020421 -0.939484
O 2.597121 2.355870 -0.687728
C 4.523999 0.937570 -1.008907
N 5.028043 1.852184 -2.012406
C 6.463656 1.986271 -2.022256
C 6.919859 2.873828 -3.165607
C 6.569491 2.412270 -4.553155
F 6.396945 4.131554 -2.967006
F 8.277537 3.027519 -3.062385
H 0.504942 -0.619801 0.887803
H 0.454804 -0.206291 -0.842477
H 0.530662 1.085668 0.375309
H 2.762890 -0.971855 -0.177124
H 2.832137 0.276269 1.070694
H 2.604555 0.787109 -1.941796
H 2.860893 2.573656 0.216355
H 4.825117 -0.093016 -1.262085
H 4.935227 1.148552 0.004679
H 4.600553 2.762827 -1.847826
H 6.928871 0.997402 -2.161532
H 6.884010 2.416042 -1.088553
H 5.482397 2.289669 -4.635515
H 7.052634 1.446768 -4.755480
H 6.916687 3.153962 -5.286029