36
H23 C11 N1 O1
C -0.757284 1.239257 -0.504791
C 4.404848 -1.372283 0.384462
C 2.641866 1.415363 -2.205898
C 3.928240 -0.083616 1.048793
C 5.209432 0.747028 1.155230
C 5.110147 2.254296 0.900284
C 6.423206 2.563473 0.177736
C 6.598183 1.339337 -0.721085
N 6.095046 0.235960 0.082427
C 5.474840 -0.877069 -0.607411
C 3.351056 -2.201978 -0.286064
C 0.228663 0.973603 0.624334
O 2.165460 -1.972362 -0.270004
H -0.240165 1.375296 -1.467830
H -1.352796 2.147268 -0.318493
H -1.462465 0.401629 -0.626451
H 4.895415 -2.035913 1.120487
H 2.302065 2.146441 -1.459590
H 2.152786 1.622553 -3.168487
H 3.731471 1.495938 -2.326405
H 3.436438 -0.252931 2.016910
H 3.204593 0.415718 0.387143
H 5.683568 0.571647 2.139651
H 4.966764 2.838373 1.820827
H 4.260100 2.462969 0.229711
H 7.253196 2.626151 0.900670
H 6.400669 3.504660 -0.390419
H 7.646826 1.186216 -1.028242
H 6.002728 1.462091 -1.651528
H 6.195315 -1.670510 -0.868240
H 4.990017 -0.552740 -1.554338
H 3.741067 -3.096229 -0.832189
H 0.931091 1.813045 0.751755
H 0.823772 0.067378 0.433266
H -0.292057 0.834791 1.585585
H 2.381929 0.400886 -1.874093