30
H18 C9 N1 O1 F1
C 0.835678 0.223137 0.117983
C 2.344860 0.277456 -0.066626
C 3.053250 -1.077219 0.141063
N 4.252598 -0.788550 0.929770
C 5.412544 -1.604555 0.674965
C 5.303330 -3.023755 1.230901
O 4.260031 -3.770476 0.647234
C 6.631722 -3.747867 1.098904
F 6.558158 -4.993314 1.696950
C 4.486059 0.644791 0.887435
C 3.080437 1.231905 0.891520
C 3.001624 2.702059 0.513053
H 0.369692 -0.475663 -0.594989
H 0.375630 1.211534 -0.039151
H 0.577450 -0.113094 1.135923
H 2.559735 0.625758 -1.092559
H 3.310687 -1.536082 -0.835184
H 2.406382 -1.802111 0.662130
H 6.282270 -1.122840 1.149542
H 5.642899 -1.667148 -0.416541
H 5.056810 -2.952594 2.302977
H 4.379789 -3.748953 -0.311113
H 7.438220 -3.177326 1.585945
H 6.891435 -3.893666 0.036206
H 5.021119 0.963377 -0.037655
H 5.095417 0.972030 1.746451
H 2.661810 1.094403 1.905043
H 3.412107 2.873388 -0.495991
H 3.569752 3.328474 1.218982
H 1.960435 3.060560 0.517183