26
H15 C8 S1 N1 O1
C 1.275992 -0.334597 0.373478
O 2.549871 0.137834 0.043052
C 3.172742 0.767305 1.108557
C 4.563387 1.270616 0.750730
S 5.198780 0.998838 -0.772101
N 5.204393 1.924140 1.730999
C 6.580323 2.398397 1.594442
C 7.510708 1.566811 2.474653
C 7.052148 1.588617 3.933010
C 5.575226 1.211755 4.049222
C 4.718951 2.057521 3.107943
H 0.854932 -0.816776 -0.519732
H 0.596349 0.482873 0.684726
H 1.307758 -1.079404 1.192850
H 3.266779 0.075084 1.971778
H 2.568337 1.629296 1.460387
H 6.601431 3.455413 1.908840
H 6.863099 2.340976 0.538337
H 8.537078 1.954081 2.381345
H 7.518161 0.530605 2.095021
H 7.196008 2.604819 4.340508
H 7.670159 0.911276 4.542551
H 5.215715 1.348354 5.080772
H 5.434742 0.147848 3.792422
H 4.798251 3.122545 3.382596
H 3.662979 1.786783 3.187365