32
H19 C9 N1 O3
C 2.615509 -2.303290 3.170537
C 2.599331 -2.025647 1.673575
C 2.973022 -0.588142 1.328991
C 2.855845 -0.313633 -0.171532
N 3.281532 1.028730 -0.538472
C 4.656912 1.098895 -0.985307
C 2.379688 1.754985 -1.386702
C 2.503806 3.261667 -1.247907
O 3.099655 3.855488 -0.385753
O 1.822456 3.869955 -2.220359
C 1.792236 5.291276 -2.192937
O 4.290696 -0.339723 1.786746
C 4.459876 0.862790 2.486099
H 2.376303 -3.355712 3.386887
H 1.880604 -1.675766 3.700656
H 3.608750 -2.086685 3.591989
H 1.600890 -2.238766 1.256778
H 3.305569 -2.699592 1.158094
H 2.275917 0.095985 1.850915
H 3.436883 -1.079032 -0.724929
H 1.802539 -0.461513 -0.456409
H 5.304829 0.577391 -0.269013
H 4.989422 2.146030 -1.043773
H 4.802624 0.634167 -1.986039
H 1.336761 1.521947 -1.117139
H 2.479697 1.511512 -2.467126
H 1.186815 5.603327 -3.051766
H 2.806363 5.707595 -2.281648
H 1.334886 5.657803 -1.262179
H 5.527759 0.960226 2.732256
H 3.886241 0.870665 3.433388
H 4.153715 1.737339 1.886551