28
H18 C8 N2
C 1.058082 0.062556 0.071042
N 2.480784 0.184440 -0.163865
C 2.784905 0.138686 -1.578764
C 3.033369 1.351224 0.499126
C 4.555971 1.355802 0.570813
N 5.019569 2.469848 1.375801
C 6.457372 2.603715 1.409698
C 7.151572 3.164432 0.148983
C 8.057866 4.003348 1.075839
C 7.026741 3.793122 2.205291
H 0.676120 -0.865819 -0.381565
H 0.472174 0.909018 -0.353989
H 0.850415 0.022109 1.151571
H 2.356791 -0.772029 -2.024856
H 3.870394 0.108444 -1.752318
H 2.376310 1.012430 -2.136015
H 2.645780 1.366144 1.532009
H 2.693747 2.300347 0.023355
H 4.986223 1.467232 -0.438279
H 4.896061 0.367600 0.949942
H 4.677309 2.361199 2.330705
H 6.963900 1.664385 1.719979
H 6.448938 3.799356 -0.413476
H 7.628952 2.453140 -0.541340
H 8.275762 5.037771 0.772804
H 9.009567 3.493599 1.289502
H 6.289053 4.610251 2.235545
H 7.396675 3.602689 3.223879