30
H20 C9 O1
C 0.900284 0.217290 0.033480
C 2.422347 0.140821 0.015768
C 2.955075 -1.263852 -0.256702
C 4.478500 -1.349812 -0.275319
C 5.007905 -2.754850 -0.548869
C 6.530881 -2.835860 -0.564563
C 7.045265 -4.235961 -0.838347
O 8.446210 -4.228903 -0.834369
C 9.017717 -5.485844 -1.080544
C 10.525082 -5.364307 -1.053932
H 0.548857 1.241887 0.231620
H 0.477122 -0.437123 0.813196
H 0.473777 -0.100781 -0.932020
H 2.820924 0.497804 0.981768
H 2.817726 0.832265 -0.749100
H 2.557834 -1.622148 -1.223950
H 2.560046 -1.957237 0.508077
H 4.875956 -0.993188 0.692051
H 4.873960 -0.656838 -1.039730
H 4.611618 -3.110442 -1.516981
H 4.611579 -3.447640 0.215103
H 6.935898 -2.495157 0.403725
H 6.936353 -2.155267 -1.332738
H 6.662173 -4.597235 -1.816121
H 6.658842 -4.939597 -0.070994
H 8.681622 -5.875621 -2.063671
H 8.678408 -6.218676 -0.319491
H 10.872154 -4.658530 -1.824146
H 10.991441 -6.342301 -1.244792
H 10.868885 -5.001947 -0.072950