26
H17 C8 N1
C 1.073967 0.080751 0.013489
C 2.592296 -0.050869 0.044520
C 3.020442 -1.504514 -0.139225
N 3.161195 0.798442 -0.997855
C 4.596952 1.001772 -0.926880
C 5.047567 2.046871 -1.928189
C 4.652882 3.526062 -1.693535
C 6.061519 3.937055 -2.173370
C 6.527983 2.486450 -1.926047
H 0.608033 -0.533231 0.798840
H 0.679134 -0.245569 -0.962531
H 0.763500 1.126035 0.174233
H 2.942781 0.276251 1.049861
H 2.721317 -1.866171 -1.136909
H 2.547566 -2.145953 0.620299
H 4.109574 -1.629951 -0.043626
H 2.709357 1.710842 -0.944959
H 5.117105 0.053219 -1.144939
H 4.930332 1.312391 0.090137
H 4.740750 1.731598 -2.939388
H 4.513347 3.731476 -0.619153
H 3.785438 3.922582 -2.242746
H 6.574269 4.739630 -1.622450
H 6.067829 4.188726 -3.244937
H 6.975237 2.369183 -0.925555
H 7.199440 2.025919 -2.666506