21
H10 C6 N1 O1 F3
O 1.106343 -0.304374 0.384784
C 2.473046 -0.168948 0.111508
C 3.012738 -1.526150 -0.305862
N 2.887845 -2.452379 0.799745
C 3.353624 -3.774780 0.497893
C 2.658840 -4.954994 1.094907
C 2.569868 -4.711074 -0.393283
C 2.674990 0.885824 -0.970827
F 2.104628 0.548707 -2.132184
F 2.136788 2.055742 -0.596992
F 3.973305 1.103250 -1.210942
H 0.817179 0.442048 0.923929
H 3.037214 0.183213 0.993623
H 4.074599 -1.421659 -0.578858
H 2.472078 -1.857908 -1.216190
H 1.912396 -2.481929 1.092440
H 4.445174 -3.837184 0.416443
H 1.762674 -4.757569 1.692016
H 3.266302 -5.789689 1.454215
H 1.615520 -4.342567 -0.782627
H 3.114381 -5.380069 -1.065647