33
H20 C10 N1 O1 F1
C 1.036795 0.179823 -0.388897
C 2.520732 0.063833 -0.040980
C 2.771483 0.479136 1.409094
C 3.032952 -1.349591 -0.344106
C 4.530524 -1.555457 -0.142766
C 5.023337 -2.910726 -0.654242
O 4.742033 -3.091814 -2.025071
C 6.506725 -3.107617 -0.343524
N 7.006623 -4.382741 -0.785963
C 8.399530 -4.731927 -0.495676
C 7.955186 -6.162290 -0.183876
F 8.143867 -7.021207 -1.251989
C 6.532649 -5.602908 -0.124918
H 0.665211 1.205174 -0.232649
H 0.431908 -0.493844 0.241909
H 0.848579 -0.090316 -1.440324
H 3.075934 0.763741 -0.693130
H 2.283784 -0.222865 2.107424
H 2.365609 1.483755 1.608919
H 3.844402 0.504015 1.653951
H 2.792726 -1.599458 -1.390417
H 2.478130 -2.074917 0.280509
H 4.794801 -1.465840 0.923480
H 5.089365 -0.759785 -0.671029
H 4.452999 -3.703566 -0.137646
H 5.308065 -2.486830 -2.520638
H 6.655486 -2.966112 0.751899
H 7.086855 -2.312705 -0.846749
H 8.807801 -4.228943 0.403154
H 9.111015 -4.613711 -1.329810
H 8.359421 -6.646142 0.714974
H 6.200992 -5.443849 0.920504
H 5.761312 -6.175428 -0.665406