36
H23 C10 N1 O2
C 2.298414 1.497691 -2.618121
C 2.334715 0.016020 -2.262958
C 3.471800 -0.368434 -1.307757
C 3.346235 0.310316 0.055826
N 3.902786 -0.452651 1.162955
C 5.343256 -0.596529 1.086423
C 3.468078 0.091979 2.439661
C 3.763723 -0.812714 3.630815
C 3.074928 -0.328581 4.892381
O 3.447931 -1.146691 5.966865
C 2.859550 -0.772575 7.175900
O 4.740045 -0.041850 -1.847051
C 5.177668 -0.871237 -2.883717
H 1.511822 1.706949 -3.359134
H 3.260498 1.819860 -3.045071
H 2.096831 2.126183 -1.736218
H 2.428800 -0.581603 -3.184375
H 1.382742 -0.294019 -1.801490
H 3.421726 -1.463015 -1.135601
H 3.797746 1.325593 -0.017700
H 2.275454 0.455651 0.265774
H 5.635677 -1.019963 0.117834
H 5.707639 -1.272287 1.873199
H 5.874928 0.376029 1.197795
H 2.377718 0.246804 2.381972
H 3.914303 1.097762 2.623213
H 4.845120 -0.863097 3.833065
H 3.426693 -1.836599 3.398903
H 1.972868 -0.343851 4.758213
H 3.352091 0.727486 5.096147
H 3.209729 -1.463923 7.955927
H 1.753329 -0.824438 7.134599
H 3.137645 0.258304 7.472786
H 6.216889 -0.596650 -3.115890
H 4.580974 -0.757922 -3.807842
H 5.156218 -1.939687 -2.592577