20
H12 C6 O2
C 5.126679 1.519337 2.117361
C 4.326115 0.712832 1.096388
C 5.157262 0.448528 -0.167423
O 5.644880 1.627053 -0.758728
C 3.002305 1.362864 0.694489
C 2.121037 2.049321 1.751009
C 2.472663 3.341678 1.007006
O 3.206595 2.621423 0.007279
H 6.089270 1.026268 2.324005
H 4.596074 1.619879 3.075322
H 5.347982 2.527587 1.736996
H 4.070681 -0.270695 1.528872
H 4.545445 -0.139564 -0.883040
H 6.028653 -0.176639 0.090021
H 4.916931 2.267107 -0.726012
H 2.450305 0.665078 0.040645
H 2.464315 1.982360 2.790771
H 1.062203 1.766384 1.697814
H 3.115442 4.046100 1.561297
H 1.625934 3.897188 0.572119