29
H16 C8 N1 O1 F3
C 1.680328 -0.582923 -0.414047
O 2.440003 0.395516 0.232223
C 3.032811 1.356172 -0.614198
C 2.015405 2.295641 -1.246313
C 4.037607 2.103403 0.264453
N 4.839544 3.072239 -0.461574
C 5.308058 4.147368 0.389513
C 5.915119 2.454121 -1.216951
C 6.343234 3.305630 -2.409532
C 7.437554 2.672395 -3.221700
F 8.559932 2.481560 -2.508642
F 7.086120 1.470288 -3.708635
F 7.774751 3.430850 -4.275118
H 1.410556 -1.345036 0.331621
H 2.248860 -1.077913 -1.225890
H 0.743981 -0.185236 -0.847971
H 3.578303 0.828903 -1.424200
H 1.387897 2.755932 -0.465802
H 1.359874 1.775016 -1.960092
H 2.540361 3.095755 -1.787171
H 4.663301 1.352085 0.791670
H 3.465006 2.635648 1.040430
H 4.453798 4.661202 0.854891
H 5.861382 4.895731 -0.196727
H 5.980570 3.792814 1.201250
H 5.568620 1.483831 -1.599387
H 6.794224 2.243982 -0.570647
H 6.717782 4.289946 -2.093772
H 5.488390 3.470530 -3.081292