21
H12 C6 N1 O1 F1
O 2.862536 1.239340 -0.304628
C 2.502821 -0.064534 0.107156
C 0.999667 -0.186860 0.020698
F 0.585749 -0.149867 -1.299551
C 2.985916 -0.354538 1.526352
N 4.414831 -0.128651 1.631294
C 4.972454 -0.500860 2.897228
C 5.419366 -1.925062 3.070906
C 6.436528 -0.821618 2.947520
H 3.750560 1.202025 -0.676603
H 2.945925 -0.816234 -0.572041
H 0.666036 -1.138974 0.462351
H 0.517468 0.647687 0.555282
H 2.776583 -1.410114 1.764891
H 2.400865 0.260835 2.243781
H 4.606513 0.856983 1.457870
H 4.546262 -0.019285 3.791789
H 5.288650 -2.586361 2.209657
H 5.278263 -2.398473 4.045990
H 6.985469 -0.746317 2.004860
H 7.000167 -0.529091 3.837188