36
H23 C11 N1 O1
C 0.815192 -0.073609 0.217021
C 2.317647 0.097571 0.229516
O 2.927451 -1.164208 0.305146
C 4.324451 -1.114852 0.316947
C 4.867639 -2.528918 0.403886
N 6.316226 -2.512547 0.387008
C 6.967703 -3.815693 0.486604
C 6.745095 -4.635911 -0.782707
C 8.451929 -3.589636 0.830047
C 9.268923 -4.897815 0.994394
C 10.245535 -4.923540 -0.185980
C 10.583651 -3.445761 -0.383471
C 9.226746 -2.750651 -0.220073
H 0.319423 0.906722 0.158244
H 0.473821 -0.580649 1.132513
H 0.499400 -0.674312 -0.649665
H 2.625724 0.724808 1.091165
H 2.651574 0.630727 -0.684156
H 4.688488 -0.515725 1.178817
H 4.717013 -0.627272 -0.598597
H 4.489256 -3.091625 -0.464026
H 4.446365 -3.020222 1.307762
H 6.640348 -1.936571 1.163157
H 6.537956 -4.403627 1.329221
H 7.095860 -4.098188 -1.677088
H 5.678166 -4.861439 -0.927612
H 7.270264 -5.600799 -0.726660
H 8.457561 -3.049673 1.792082
H 8.631529 -5.794097 1.046987
H 9.838996 -4.861524 1.936332
H 9.741741 -5.310592 -1.088325
H 11.127471 -5.556540 -0.003014
H 11.064074 -3.230063 -1.350399
H 11.278415 -3.118073 0.409238
H 8.691206 -2.757963 -1.182220
H 9.321490 -1.695514 0.076008