24
H12 C7 N1 O1 F3
O 0.920820 0.906521 0.351611
C 2.170046 0.298471 0.173248
C 2.718824 0.656821 -1.216130
N 2.181792 -0.053452 -2.353694
C 0.765547 0.109739 -2.658812
C 0.037604 -1.091699 -2.022348
C 1.119311 -2.191335 -1.939964
C 2.421919 -1.491364 -2.404387
C 3.115950 0.767909 1.273567
F 3.396770 2.073069 1.188198
F 2.579400 0.562864 2.486100
F 4.278870 0.105726 1.238443
H 0.475446 0.492999 1.101508
H 2.118058 -0.799776 0.284238
H 3.808715 0.500393 -1.204525
H 2.554565 1.737223 -1.357094
H 0.632403 0.083493 -3.755856
H 0.395366 1.079610 -2.300137
H -0.838113 -1.400062 -2.612217
H -0.315496 -0.819529 -1.018153
H 0.886871 -3.054180 -2.581413
H 1.217197 -2.572581 -0.912180
H 2.644259 -1.783826 -3.445791
H 3.299656 -1.762123 -1.798871