23
H14 C7 N2
C 0.869251 0.145773 0.010633
C 2.391000 0.070607 0.041576
C 2.936644 -1.293241 -0.374770
C 4.459689 -1.371964 -0.348699
C 4.996375 -2.734606 -0.761591
N 6.451577 -2.746835 -0.756807
C 7.003773 -4.035805 -1.114762
C 8.459230 -3.955078 -1.294135
N 9.605921 -3.888287 -1.421058
H 0.507641 1.139851 0.316389
H 0.419327 -0.596459 0.690248
H 0.480541 -0.053882 -1.001398
H 2.752179 0.309957 1.057167
H 2.812913 0.846215 -0.621354
H 2.575792 -1.534361 -1.390975
H 2.517382 -2.070381 0.289537
H 4.821593 -1.134947 0.668192
H 4.888566 -0.606267 -1.017648
H 4.653355 -2.971898 -1.783895
H 4.566974 -3.517722 -0.100323
H 6.785977 -2.485880 0.170597
H 6.579589 -4.365133 -2.077412
H 6.802161 -4.848945 -0.388212