17
H11 C5 N1
C 2.222501 -0.022397 -0.219923
C 0.777014 -0.052057 0.239351
C -0.025994 1.231530 -0.055879
C -1.490753 0.755216 -0.123921
C -1.383966 -0.793899 -0.133749
N 0.014158 -1.133504 -0.388262
H 2.775147 0.789429 0.276780
H 2.281573 0.145865 -1.308676
H 2.729510 -0.972569 0.007743
H 0.753997 -0.229612 1.331289
H 0.296713 1.637814 -1.029306
H 0.141504 2.015276 0.698356
H -1.989872 1.128584 -1.030510
H -2.080331 1.105806 0.736540
H -2.038259 -1.268915 -0.879030
H -1.673907 -1.192896 0.853255
H 0.179394 -1.078701 -1.395250