27
H16 C8 N1 O1 F1
O 0.811779 0.154245 -0.346436
C 2.215725 0.064939 -0.333303
C 2.742986 1.192592 0.540416
N 4.190913 1.249055 0.579861
C 4.692042 2.577888 0.900261
C 6.208613 2.647191 0.759007
C 6.927526 1.587418 1.603230
C 6.930198 1.922547 3.085195
F 7.565733 3.141071 3.298730
C 6.292684 0.215235 1.345396
C 4.771197 0.242910 1.458140
H 0.469722 -0.572835 -0.877022
H 2.648826 0.177260 -1.346242
H 2.548592 -0.916043 0.055166
H 2.299076 1.101147 1.556895
H 2.365112 2.136886 0.117762
H 4.389706 2.883266 1.928531
H 4.230768 3.303346 0.212338
H 6.560868 3.653934 1.030440
H 6.466958 2.486930 -0.300657
H 7.985276 1.548718 1.293843
H 7.477893 1.153814 3.653966
H 5.913226 2.005165 3.500290
H 6.698495 -0.539353 2.038650
H 6.559401 -0.106988 0.325854
H 4.467190 0.422774 2.515183
H 4.376127 -0.747293 1.188337