32
H21 C9 N1 O1
C 1.272411 0.274434 0.377076
O 2.559472 0.118839 -0.144663
C 2.779114 -0.901670 -1.122318
C 2.240976 -2.251180 -0.639752
C 2.124417 -0.504870 -2.448737
C 4.310238 -0.924082 -1.242958
C 4.905419 -1.802738 -2.335503
N 6.356604 -1.733687 -2.296200
C 7.050910 -2.604522 -3.240151
C 6.893052 -2.097894 -4.671793
C 8.522057 -2.682038 -2.848065
H 1.276286 1.198465 0.974212
H 0.973673 -0.554658 1.044998
H 0.494440 0.383304 -0.400939
H 1.142213 -2.252001 -0.578150
H 2.646254 -2.495767 0.354667
H 2.526782 -3.053538 -1.334907
H 1.037288 -0.377422 -2.335381
H 2.279684 -1.279486 -3.214153
H 2.547362 0.441750 -2.819447
H 4.715812 -1.233939 -0.263887
H 4.645493 0.113005 -1.405647
H 4.559475 -1.448461 -3.319412
H 4.536963 -2.846924 -2.235704
H 6.660325 -1.977312 -1.354099
H 6.633127 -3.636202 -3.201647
H 7.275938 -1.067366 -4.754837
H 5.841803 -2.097689 -4.997104
H 7.453767 -2.735672 -5.372380
H 8.981245 -1.680388 -2.877644
H 9.079292 -3.338852 -3.532796
H 8.640020 -3.080971 -1.827415