27
H17 C8 N1 O1
C 0.977188 1.687571 0.629905
C 2.189462 1.066362 1.309299
N 2.533799 1.688771 2.579637
C 1.549429 1.425417 3.607961
C 3.875534 1.349734 3.028831
C 4.975831 1.989990 2.199913
C 5.004262 3.530009 2.105428
C 6.541630 3.451462 2.192674
O 7.255528 4.433873 2.877717
C 6.402577 2.037005 2.793390
H 0.844093 1.255890 -0.373795
H 1.113910 2.775149 0.522076
H 0.044205 1.513732 1.186955
H 3.050216 1.171077 0.632980
H 2.027661 -0.029434 1.435962
H 0.553950 1.775023 3.298395
H 1.813502 1.963079 4.531382
H 1.463008 0.343481 3.858285
H 4.030847 0.246120 3.069986
H 3.978823 1.714087 4.064391
H 5.015608 1.550489 1.191007
H 4.588051 3.980406 3.023060
H 4.550955 4.018378 1.230056
H 6.980550 3.396366 1.183925
H 6.879138 4.507827 3.763280
H 6.367689 2.092431 3.895070
H 7.129265 1.266846 2.494681