27
H14 C8 N1 O1 F3
C 1.839180 -0.969093 -3.219908
N 3.133775 -1.237589 -2.618333
C 4.188746 -0.457371 -3.224834
C 4.967274 -1.259986 -4.244414
F 5.594090 -2.312107 -3.698448
F 4.186894 -1.744638 -5.221733
F 5.909342 -0.507449 -4.832541
C 3.169084 -1.230629 -1.154606
C 4.407317 -1.979590 -0.639121
C 4.047817 -3.472893 -0.781237
C 2.500623 -3.523880 -0.807785
C 2.041282 -2.086112 -0.537025
O 1.901513 -1.799716 0.838055
H 1.950797 -0.903326 -4.310050
H 1.384584 -0.020025 -2.865041
H 1.128912 -1.785109 -3.027063
H 4.920391 -0.104167 -2.484672
H 3.812321 0.442940 -3.742479
H 3.101445 -0.196996 -0.755959
H 4.571060 -1.710532 0.417029
H 5.332859 -1.714019 -1.166438
H 4.472405 -4.066231 0.041805
H 4.461737 -3.878106 -1.714770
H 2.069767 -4.209041 -0.062517
H 2.139084 -3.845059 -1.795816
H 1.056230 -1.871151 -0.970226
H 2.685222 -2.117465 1.301818