23
H14 C7 O2
C 1.126133 0.091301 0.065442
C 2.602803 -0.278804 0.087498
C 3.069946 -1.132070 -1.097155
C 2.844733 -0.468103 -2.453987
C 3.441099 -1.249328 -3.615351
O 4.453673 -1.409518 -0.907330
C 4.639637 -2.802108 -0.772161
C 3.246798 -3.302109 -0.418898
O 2.419365 -2.388368 -1.101467
H 0.835779 0.586456 1.004400
H 0.501458 -0.807979 -0.049066
H 0.884141 0.780601 -0.757966
H 2.834886 -0.847464 1.002763
H 3.230268 0.626428 0.116772
H 3.274804 0.545603 -2.409689
H 1.759823 -0.346085 -2.597251
H 4.532469 -1.339915 -3.508774
H 3.234060 -0.748418 -4.572983
H 3.017380 -2.263495 -3.663754
H 5.383414 -3.003805 0.012866
H 4.995521 -3.244169 -1.720557
H 3.070071 -3.270901 0.672256
H 3.038360 -4.317840 -0.781618