34
H21 C11 N1 O1
C 1.267704 -0.142612 -0.652048
C 2.692164 0.055338 -0.204412
C 2.978037 -0.434579 1.189822
C 3.596223 0.623022 -1.018901
C 5.055163 0.874712 -0.766010
N 5.412412 2.274231 -0.977002
C 4.797313 3.135039 0.015082
C 6.848540 2.462810 -1.083703
C 7.285661 3.711701 -1.854435
O 6.990518 4.922366 -1.181147
C 8.756577 3.631604 -2.206440
C 9.191892 2.950520 -3.473163
C 9.291931 4.446977 -3.346315
H 0.990028 -1.209820 -0.612080
H 1.101184 0.218709 -1.677321
H 0.570675 0.386441 0.020001
H 2.255218 0.000243 1.900172
H 3.989608 -0.192943 1.540725
H 2.850883 -1.529117 1.246404
H 3.257582 0.952868 -2.009833
H 5.634392 0.272140 -1.486519
H 5.357566 0.526177 0.244407
H 3.704627 3.007697 0.006060
H 5.027501 4.184574 -0.202271
H 5.153871 2.910977 1.046993
H 7.263571 1.598853 -1.624647
H 7.343737 2.470280 -0.083029
H 6.699395 3.746464 -2.787871
H 7.464550 4.910204 -0.339789
H 9.415608 3.511340 -1.337593
H 8.409736 2.545212 -4.122652
H 10.113858 2.363704 -3.453988
H 8.575850 5.055933 -3.906179
H 10.284556 4.893055 -3.242980