23
H15 C6 N1 O1
C 3.498095 -5.708752 -0.393716
C 3.409428 -4.941929 0.919800
C 4.330168 -3.725095 0.966189
C 4.265576 -2.957069 2.285456
O 4.537761 -3.804511 3.388004
C 5.174915 -1.707435 2.342231
C 4.823781 -0.677042 1.275948
N 6.604740 -1.995425 2.293535
H 2.824527 -6.579891 -0.398358
H 4.521587 -6.077874 -0.571544
H 3.223920 -5.070486 -1.249724
H 3.655019 -5.609362 1.761172
H 2.369162 -4.611673 1.087378
H 4.074865 -3.043189 0.138385
H 5.373917 -4.047471 0.789575
H 3.227519 -2.612575 2.436776
H 5.387785 -4.231403 3.221863
H 4.977000 -1.257495 3.330776
H 5.105109 -1.029155 0.270134
H 5.365249 0.262538 1.461586
H 3.744498 -0.458998 1.268545
H 6.845754 -2.459792 1.417596
H 6.871025 -2.632135 3.043423