36
H23 C10 N1 O2
C 3.080526 -1.507309 -0.132136
C 4.490879 -0.978119 0.003297
O 5.117434 -0.998360 -1.251251
C 6.433971 -0.522852 -1.232451
C 6.993284 -0.553333 -2.643936
N 8.387679 -0.144784 -2.670937
C 9.296824 -1.267472 -2.590139
C 8.739473 0.825062 -3.691797
C 8.468385 2.273390 -3.273703
O 7.109893 2.472096 -2.927285
C 8.923593 3.305807 -4.322399
C 8.627100 4.725867 -3.840096
C 10.401069 3.162969 -4.691310
H 2.572675 -1.497540 0.843763
H 3.087487 -2.541645 -0.508917
H 2.498386 -0.888199 -0.831906
H 5.063184 -1.592573 0.728708
H 4.476443 0.054556 0.408594
H 7.064473 -1.139376 -0.558366
H 6.478138 0.519180 -0.858093
H 6.389326 0.122678 -3.263099
H 6.860771 -1.572372 -3.062425
H 9.022253 -1.916906 -1.744399
H 10.326862 -0.920484 -2.414213
H 9.299935 -1.898521 -3.506767
H 8.226670 0.621908 -4.659116
H 9.815857 0.728047 -3.890084
H 9.029561 2.451810 -2.339266
H 6.586589 2.385116 -3.734616
H 8.322567 3.120421 -5.233987
H 9.237730 4.970616 -2.954299
H 7.570862 4.842097 -3.560822
H 8.860571 5.464316 -4.622876
H 11.036546 3.198926 -3.790046
H 10.713975 3.987914 -5.350082
H 10.617741 2.223936 -5.221334