30
H20 C8 N2
C 0.944578 0.103613 0.388937
C 2.449315 -0.013768 0.178462
C 2.905965 -1.442122 -0.109329
C 4.409843 -1.539027 -0.344389
N 4.915143 -2.901423 -0.430228
C 4.414928 -3.602808 -1.595610
C 6.364864 -2.945146 -0.344543
C 6.916838 -4.319225 0.021356
N 8.353865 -4.256961 0.200046
C 8.957596 -5.538863 0.495888
H 0.646639 1.142430 0.599807
H 0.611380 -0.518055 1.235976
H 0.389563 -0.228238 -0.503710
H 2.977228 0.364503 1.071293
H 2.756262 0.640637 -0.656309
H 2.352291 -1.820848 -0.984864
H 2.641510 -2.099215 0.737822
H 4.921625 -1.046838 0.498975
H 4.676726 -0.951242 -1.254473
H 3.317552 -3.661403 -1.578171
H 4.788773 -4.635916 -1.618659
H 4.714927 -3.112745 -2.549794
H 6.678441 -2.238222 0.441667
H 6.850864 -2.601683 -1.286090
H 6.707589 -5.046043 -0.781682
H 6.376743 -4.686092 0.922045
H 8.566442 -3.606300 0.955073
H 8.847966 -6.217975 -0.366092
H 8.518027 -6.054714 1.376386
H 10.035028 -5.414081 0.682968