29
H19 C9 N1
C 1.050026 0.297928 -0.116525
C 2.551920 0.504742 -0.235503
N 3.148018 0.659485 1.079316
C 4.601387 0.852364 1.174324
C 4.887293 1.045984 2.677347
C 6.348067 1.184796 3.088363
C 5.436594 -0.325438 0.574966
C 6.512576 0.314352 -0.305925
C 5.809617 1.552736 -0.866784
C 5.044799 2.092041 0.344085
H 0.583462 0.214351 -1.109782
H 0.582253 1.138854 0.418907
H 0.821068 -0.626103 0.439827
H 2.743353 1.415493 -0.826035
H 2.983973 -0.333965 -0.821935
H 2.896805 -0.150185 1.646594
H 4.450215 0.184633 3.214203
H 4.320342 1.932617 3.008262
H 6.936671 0.290129 2.832114
H 6.425053 1.324035 4.177724
H 6.834978 2.051698 2.615303
H 4.781801 -0.952425 -0.049897
H 5.847718 -0.983471 1.355807
H 6.892973 -0.363391 -1.086006
H 7.374703 0.626050 0.308009
H 5.107186 1.250196 -1.662264
H 6.502475 2.288956 -1.302619
H 4.184611 2.724970 0.081581
H 5.720392 2.718158 0.946800