36
H23 C10 N1 O2
C 5.112594 -8.514537 1.174513
C 4.708836 -7.440686 2.159833
O 5.611773 -6.370006 2.074582
C 5.323755 -5.317694 2.949205
C 6.365982 -4.228924 2.771545
N 6.094088 -3.127566 3.674595
C 6.877204 -1.906159 3.481167
C 6.424917 -1.159470 2.228205
C 8.401876 -2.112255 3.479180
C 8.931310 -2.803828 4.730100
C 10.439906 -2.951963 4.724633
O 10.848288 -3.617224 5.888687
C 12.229649 -3.799400 5.965464
H 4.415336 -9.363848 1.227662
H 6.126012 -8.883538 1.395007
H 5.103312 -8.122256 0.146023
H 4.695769 -7.850389 3.190807
H 3.677828 -7.091208 1.946461
H 5.325719 -5.671516 4.002369
H 4.315262 -4.898746 2.755812
H 6.317044 -3.871862 1.730640
H 7.369257 -4.684538 2.902511
H 6.205690 -3.448046 4.634470
H 6.636182 -1.268158 4.349446
H 6.691208 -1.705180 1.308801
H 6.903604 -0.169883 2.172275
H 5.333650 -1.017233 2.236913
H 8.883612 -1.125014 3.372958
H 8.691968 -2.689835 2.583205
H 8.487714 -3.808766 4.828528
H 8.632983 -2.236805 5.628760
H 10.922563 -1.953867 4.659614
H 10.761636 -3.516029 3.823557
H 12.454963 -4.326228 6.904023
H 12.777721 -2.836144 5.965998
H 12.617298 -4.406517 5.123180