29
H18 C8 N1 O1 F1
C 2.516417 3.145221 0.506443
C 2.182077 2.426123 -0.796921
C 2.907405 1.095816 -1.047089
C 2.533355 -0.005505 -0.046373
O 3.128562 0.201592 1.208728
N 4.362068 1.228874 -0.978457
C 4.969299 2.226407 -1.842998
C 6.488033 2.146352 -1.775077
C 7.175293 3.201981 -2.634135
C 8.681936 3.106217 -2.556510
F 9.265510 4.084085 -3.352051
H 1.962044 4.094137 0.576490
H 3.590215 3.381460 0.571771
H 2.262832 2.530290 1.380957
H 2.379423 3.100304 -1.646970
H 1.100507 2.215279 -0.836241
H 2.580517 0.745768 -2.049448
H 1.438923 -0.045966 0.078937
H 2.844799 -0.983317 -0.470853
H 3.959110 0.659967 1.000968
H 4.772669 0.322234 -1.205009
H 4.651028 3.230891 -1.520339
H 4.640828 2.118414 -2.899033
H 6.812671 1.140210 -2.096199
H 6.799333 2.254197 -0.722043
H 6.867661 4.210616 -2.310794
H 6.867698 3.092294 -3.687626
H 9.038467 2.125265 -2.911642
H 9.038300 3.254055 -1.523775