35
H23 C10 N1 O1
C 0.546903 -2.756878 -1.741959
C 2.058604 -2.565877 -1.718720
C 2.781539 -3.575317 -0.829354
C 4.295640 -3.391472 -0.823585
C 5.058932 -4.273612 0.167314
C 4.827620 -5.762640 -0.080402
N 6.483869 -3.967023 0.063206
C 7.285078 -4.243056 1.251327
C 7.181677 -3.144618 2.312286
C 8.739782 -4.474183 0.865825
O 8.868481 -5.667503 0.148924
C 10.169072 -5.907501 -0.293304
H 0.055398 -2.013499 -2.388742
H 0.116910 -2.656423 -0.731868
H 0.276757 -3.757149 -2.118282
H 2.296551 -1.543902 -1.374854
H 2.456387 -2.640293 -2.746128
H 2.526310 -4.594383 -1.167113
H 2.397699 -3.490187 0.203729
H 4.525132 -2.336661 -0.586130
H 4.698924 -3.574800 -1.836368
H 4.670741 -4.034823 1.182065
H 5.082044 -6.020740 -1.121653
H 3.781702 -6.049093 0.107254
H 5.458332 -6.376548 0.580535
H 6.601349 -2.984221 -0.180042
H 6.923861 -5.189268 1.687087
H 7.622613 -2.204419 1.939562
H 7.705757 -3.420510 3.240588
H 6.129668 -2.945376 2.567325
H 9.367012 -4.505728 1.781113
H 9.099364 -3.611867 0.263678
H 10.176492 -6.864119 -0.835685
H 10.890436 -5.977293 0.545669
H 10.528702 -5.115149 -0.979910