33
H21 C10 N1 O1
C 1.385373 -0.296117 0.913813
C 2.310418 0.048937 0.009704
C 2.499071 -0.720840 -1.270090
C 3.217386 1.237384 0.221801
C 4.704176 0.884702 0.260505
N 5.500848 2.078415 0.477051
C 6.930095 1.855406 0.650797
C 7.573748 1.290414 -0.610101
C 7.562147 3.189666 1.033462
O 8.916050 3.002908 1.323904
C 9.599644 4.190614 1.628743
C 11.046579 3.870981 1.929554
H 0.719951 -1.150765 0.753475
H 1.259321 0.266534 1.844625
H 1.716025 -1.480105 -1.408509
H 3.474351 -1.235038 -1.284631
H 2.487416 -0.042611 -2.139493
H 2.944305 1.746016 1.161407
H 3.063812 1.965275 -0.594795
H 4.996325 0.428115 -0.698158
H 4.875048 0.110166 1.041048
H 5.146463 2.549718 1.309168
H 7.134221 1.148894 1.486150
H 7.317123 1.916891 -1.480386
H 7.245874 0.260949 -0.816564
H 8.666659 1.278644 -0.495349
H 7.031621 3.612505 1.912701
H 7.427659 3.909902 0.199548
H 9.127790 4.691200 2.498861
H 9.530040 4.900576 0.779537
H 11.123126 3.183712 2.785978
H 11.597761 4.791277 2.173525
H 11.529964 3.397654 1.061198