35
H23 C10 N1 O1
C 5.088518 2.387245 7.289653
C 4.428319 1.705760 6.090928
C 2.904869 1.766283 6.208438
C 4.944658 2.313437 4.779477
C 4.478648 1.608612 3.510660
C 5.048606 2.188698 2.209308
C 4.538971 1.405320 1.003822
N 6.516006 2.199670 2.217848
C 7.128623 3.496054 2.430680
C 8.633209 3.403297 2.687171
C 9.400712 2.766708 1.536412
O 9.146251 4.682669 3.002982
H 4.768328 1.930708 8.239896
H 4.822562 3.457559 7.327651
H 6.186908 2.319088 7.236448
H 4.726356 0.640707 6.101987
H 2.549563 2.809809 6.152350
H 2.565561 1.350374 7.170650
H 2.402595 1.198303 5.410623
H 6.047125 2.294268 4.800664
H 4.652497 3.380147 4.740415
H 3.378123 1.637832 3.442871
H 4.764234 0.541809 3.565391
H 4.675753 3.228657 2.113741
H 4.912037 0.367672 1.032331
H 4.877156 1.864821 0.061508
H 3.439448 1.367835 0.989332
H 6.855030 1.813930 1.340329
H 6.675136 3.970178 3.313954
H 6.962537 4.197023 1.579631
H 8.783306 2.791936 3.592844
H 9.226616 3.320791 0.597746
H 9.098719 1.719877 1.379598
H 10.480028 2.779204 1.749794
H 9.062793 5.230801 2.212607