36
H23 C11 N1 O1
C 0.693189 0.074092 0.403743
C 1.890849 -0.452588 0.661000
C 2.836829 0.037473 1.720583
N 4.135049 0.391361 1.171589
C 4.095407 1.535247 0.262412
C 4.413326 1.173065 -1.185584
C 4.374139 2.373443 -2.124989
C 4.687795 2.024887 -3.577968
C 4.647175 3.229454 -4.510636
C 5.196719 0.447913 2.155436
C 6.569886 0.271378 1.528000
O 7.528389 0.289731 2.547276
C 8.836025 0.144579 2.080325
H 0.039498 -0.338832 -0.370465
H 0.318760 0.938771 0.963565
H 2.246597 -1.310742 0.076676
H 2.989964 -0.779750 2.445389
H 2.366269 0.876955 2.279032
H 4.802281 2.312439 0.606777
H 3.097229 2.008370 0.300736
H 3.693595 0.408870 -1.526627
H 5.409388 0.698831 -1.225650
H 5.090188 3.138110 -1.771942
H 3.376317 2.846230 -2.072110
H 3.971331 1.261619 -3.929163
H 5.684142 1.551604 -3.629207
H 3.651564 3.702746 -4.507414
H 4.877561 2.945116 -5.549206
H 5.378308 3.995648 -4.204557
H 5.054340 -0.370227 2.878409
H 5.192040 1.395578 2.738379
H 6.773563 1.076138 0.791964
H 6.594775 -0.687806 0.970726
H 9.513576 0.168514 2.945935
H 9.123147 0.961336 1.388813
H 8.982742 -0.815914 1.547964