36
H23 C11 N1 O1
C 1.220297 0.529879 0.315349
C 2.154520 -0.357694 -0.029183
C 3.021292 -1.117591 0.930810
C 4.498885 -0.807863 0.738737
O 5.249242 -1.599847 1.616225
C 6.629389 -1.386842 1.528034
C 7.332628 -2.295279 2.519094
N 8.767228 -2.113300 2.448707
C 9.518613 -3.005493 3.312902
C 11.016244 -2.754623 3.191399
C 11.892905 -3.584668 4.136763
C 11.730740 -5.088972 3.913304
C 13.358909 -3.172739 4.002512
H 0.622968 1.051960 -0.438267
H 1.013806 0.764644 1.365811
H 2.327884 -0.559064 -1.094738
H 2.881215 -2.201704 0.777458
H 2.735823 -0.892428 1.970787
H 4.686018 0.269414 0.927062
H 4.795556 -1.003579 -0.312637
H 6.875967 -0.326399 1.747086
H 7.002505 -1.597522 0.505407
H 7.092211 -3.342186 2.267073
H 6.912902 -2.111361 3.531775
H 8.993413 -1.149303 2.693516
H 9.282417 -4.041642 3.016635
H 9.217536 -2.916260 4.381172
H 11.206106 -1.683571 3.386150
H 11.323825 -2.937329 2.145870
H 11.573219 -3.360383 5.171286
H 11.976712 -5.358934 2.871858
H 10.704301 -5.431399 4.115229
H 12.402609 -5.660178 4.573612
H 13.733557 -3.381839 2.986017
H 13.996581 -3.722766 4.712738
H 13.494267 -2.096058 4.192989