33
H20 C10 N2 O1
C 2.131571 0.129842 3.216340
O 2.183917 1.146505 2.257873
C 2.961707 0.939055 1.089589
C 2.445763 -0.217704 0.194597
C 3.203525 -1.555150 0.081336
C 3.217419 -2.410342 1.347569
C 2.613334 -2.360842 -1.079515
C 4.473823 0.894925 1.331476
N 5.036704 2.159214 1.792479
C 4.779072 2.442931 3.194287
C 6.448527 2.250553 1.482055
C 6.933004 3.636540 1.566834
N 7.313519 4.725445 1.637766
H 1.550694 0.517837 4.066001
H 3.128341 -0.161834 3.593667
H 1.621732 -0.775777 2.844195
H 2.787860 1.869902 0.528983
H 1.397856 -0.412659 0.482479
H 2.393935 0.191702 -0.827247
H 4.251529 -1.330791 -0.182044
H 2.192700 -2.674741 1.657944
H 3.706680 -1.906327 2.192426
H 3.761172 -3.351451 1.166889
H 1.554316 -2.604822 -0.888591
H 3.153589 -3.310136 -1.221608
H 2.660922 -1.801233 -2.027152
H 4.930599 0.668021 0.357208
H 4.749841 0.057169 2.005479
H 3.698627 2.453738 3.375824
H 5.179293 3.433263 3.460953
H 5.246086 1.693223 3.869106
H 6.632262 1.915526 0.450082
H 7.094891 1.633439 2.143090