31
H19 C10 N1 O1
C 2.024653 1.453035 -0.861048
C 2.353209 0.230031 -0.002344
C 1.141895 -0.707151 0.052856
O 0.023870 -0.189778 0.729792
N 2.838419 0.644792 1.317803
C 2.679572 -0.325147 2.380833
C 4.191652 1.173595 1.278903
C 4.475281 2.266643 2.319530
C 5.903462 2.827234 2.114085
C 5.674743 4.082898 1.310121
C 4.387234 4.440450 1.310575
C 3.544325 3.483616 2.114203
H 2.881579 2.133922 -0.960696
H 1.202521 2.034819 -0.412606
H 1.724554 1.147100 -1.875320
H 3.136026 -0.361631 -0.530648
H 0.892541 -0.976055 -0.991948
H 1.405650 -1.647094 0.558633
H -0.225648 0.642420 0.312306
H 1.617580 -0.549279 2.547115
H 3.073022 0.092134 3.319246
H 3.221097 -1.279592 2.194788
H 4.380837 1.608377 0.285617
H 4.938980 0.358354 1.401169
H 4.360088 1.843025 3.328249
H 6.567480 2.107490 1.605463
H 6.392640 3.070861 3.074258
H 6.482825 4.636664 0.824393
H 3.982285 5.331903 0.823601
H 2.607865 3.190928 1.613330
H 3.251934 3.945274 3.074721