18
H11 C5 N1 O1
O 0.927660 -0.018945 0.204872
C 2.325178 0.060078 0.055919
C 2.858782 1.100482 1.021629
C 4.367634 1.270305 0.932660
N 4.840993 2.247268 1.898769
C 6.116617 2.872973 1.625843
C 4.847886 3.632246 1.472868
H 0.598728 -0.681139 -0.412386
H 2.604168 0.340005 -0.979658
H 2.808274 -0.915879 0.262422
H 2.582695 0.814362 2.049861
H 2.364882 2.064636 0.811933
H 4.652355 1.551591 -0.104335
H 4.867099 0.310735 1.149013
H 6.638558 2.583811 0.704779
H 6.769077 3.045662 2.488281
H 4.518181 3.850259 0.448773
H 4.548683 4.374729 2.219926