34
H22 C9 N2 O1
C 1.394353 0.505175 -1.642883
C 2.917559 0.465881 -1.551502
C 3.569235 0.383038 -2.935733
N 4.989396 0.053850 -2.843421
C 5.230344 -1.373756 -2.929886
C 5.826559 0.808755 -3.753312
N 3.462567 1.614419 -0.832851
C 3.765173 1.457241 0.585763
C 3.378560 2.722926 1.341249
C 5.262789 1.117484 0.748604
C 5.642779 0.743048 2.171463
O 5.637476 0.046950 -0.077268
H 0.991979 -0.391029 -2.140620
H 1.061923 1.387957 -2.215498
H 0.948251 0.566019 -0.637837
H 3.210423 -0.439128 -0.995624
H 3.455425 1.365339 -3.421582
H 3.034703 -0.348604 -3.574418
H 4.609265 -1.908731 -2.196035
H 6.283824 -1.595025 -2.699987
H 5.001850 -1.784368 -3.936529
H 5.696893 1.886374 -3.573509
H 5.602301 0.604327 -4.822102
H 6.885247 0.561815 -3.578653
H 2.869639 2.425509 -0.987357
H 3.188659 0.608810 1.011044
H 3.948970 3.589124 0.965878
H 3.567834 2.632126 2.419948
H 2.306877 2.938128 1.206492
H 5.820401 2.036661 0.461497
H 5.044006 -0.116273 2.515717
H 5.494643 1.575764 2.873740
H 6.703415 0.452429 2.207336
H 5.428452 0.265693 -1.013266