28
H19 C8 N1
C 1.141501 0.794982 -0.027313
C 2.440024 0.013682 -0.181131
C 2.970598 -0.529407 1.139023
N 4.199281 -1.279841 0.951148
C 4.777453 -1.857955 2.168212
C 4.595265 -3.381135 2.195968
C 3.151771 -3.840294 2.037451
C 6.249535 -1.445145 2.287642
C 6.967242 -1.935392 3.539180
H 0.785046 1.174811 -0.996996
H 1.271063 1.660864 0.642214
H 0.343785 0.163802 0.397121
H 3.210667 0.661112 -0.636579
H 2.296804 -0.830708 -0.876293
H 2.212178 -1.195214 1.584617
H 3.094239 0.313432 1.856071
H 4.883330 -0.671067 0.506611
H 4.250365 -1.443022 3.052824
H 4.996698 -3.774486 3.144444
H 5.211382 -3.815864 1.388029
H 2.511533 -3.438344 2.840101
H 3.078411 -4.938482 2.072707
H 2.736190 -3.507479 1.073936
H 6.290023 -0.342546 2.256021
H 6.785108 -1.800142 1.388118
H 6.417851 -1.649757 4.451296
H 7.974832 -1.497177 3.607072
H 7.085664 -3.029556 3.548456