28
H17 C9 N1 O1
C 0.992699 -0.813154 -0.261718
C 2.060649 -0.011884 -0.173308
C 2.096837 1.177150 0.746018
C 3.303379 -0.275042 -1.010418
N 4.544349 -0.408893 -0.279572
C 4.589986 -1.333294 0.848723
C 5.413427 -0.607383 1.915324
C 6.307269 0.314968 1.089804
C 5.393454 0.754632 -0.056855
C 6.160673 1.150533 -1.316974
O 7.031008 2.234327 -1.100611
H 0.080967 -0.621627 0.313919
H 0.991380 -1.687115 -0.921973
H 1.135934 1.323253 1.260291
H 2.340361 2.097722 0.190290
H 2.879354 1.054599 1.512554
H 3.421911 0.557131 -1.724779
H 3.124209 -1.178857 -1.620049
H 5.065240 -2.292262 0.563417
H 3.577345 -1.579690 1.212737
H 5.975971 -1.293299 2.565153
H 4.749277 -0.006801 2.557561
H 7.162923 -0.249176 0.680564
H 6.709514 1.165504 1.656866
H 4.806464 1.642180 0.267331
H 5.450521 1.364248 -2.139642
H 6.777607 0.295349 -1.637804
H 6.496251 2.993892 -0.840770