29
H19 C9 N1
C 6.235804 3.848333 -4.788967
C 7.060477 3.807525 -3.742618
C 7.432651 2.561595 -2.981727
C 8.924241 2.268253 -3.156911
N 7.092336 2.764315 -1.575837
C 7.170293 1.579583 -0.738598
C 6.690329 1.845566 0.693813
C 5.179119 2.075111 0.760832
C 7.446499 2.996452 1.372365
C 8.962994 2.848644 1.380513
H 6.015802 4.786350 -5.307634
H 5.751051 2.942505 -5.170531
H 7.528534 4.731221 -3.376833
H 6.864931 1.708901 -3.415222
H 9.529049 3.092556 -2.745466
H 9.168084 2.154823 -4.223856
H 9.219042 1.338540 -2.648027
H 6.143067 3.131079 -1.533452
H 8.215759 1.235097 -0.703879
H 6.584107 0.731493 -1.157489
H 6.910040 0.921254 1.258536
H 4.882704 3.007353 0.251008
H 4.840004 2.158608 1.805475
H 4.625723 1.245152 0.293281
H 7.080925 3.081444 2.410248
H 7.176320 3.942394 0.873050
H 9.271305 1.880221 1.808440
H 9.434354 3.642638 1.980439
H 9.379837 2.915143 0.363438