26
H17 C8 N1
C 2.809880 0.651810 -2.688502
C 2.242842 -0.735818 -2.394386
C 0.722097 -0.760669 -2.542407
C 2.697821 -1.296835 -1.028039
C 2.259184 -0.450569 0.162302
N 4.150618 -1.440660 -0.981993
C 4.718409 -2.423968 -1.857972
C 5.800809 -3.324118 -1.352094
C 4.446002 -3.901471 -1.680837
H 2.602750 0.946951 -3.729390
H 3.899285 0.674246 -2.535829
H 2.361620 1.418251 -2.034959
H 2.646136 -1.427165 -3.154756
H 0.233806 -0.035070 -1.871720
H 0.310230 -1.757720 -2.316623
H 0.426870 -0.503231 -3.571840
H 2.209186 -2.291462 -0.928967
H 2.734888 0.542292 0.144430
H 2.546256 -0.942085 1.105935
H 1.168573 -0.313510 0.181995
H 4.442179 -1.621362 -0.024357
H 4.829358 -2.087543 -2.895178
H 6.069057 -3.240239 -0.293887
H 6.641628 -3.548260 -2.013764
H 3.810717 -4.192246 -0.838566
H 4.347000 -4.530369 -2.570167