34
H21 C9 N1 O3
C 1.138236 -0.841054 0.688973
C 2.513973 -0.411705 0.230900
O 3.100275 0.395289 1.218187
C 4.388198 0.836109 0.894272
C 4.874776 1.733112 2.021722
N 6.274358 2.092513 1.897596
C 6.548407 2.939062 0.751173
C 6.855198 2.609097 3.126177
C 8.232547 2.020668 3.400330
O 9.134459 2.314999 2.365158
C 9.575572 1.218029 1.607496
O 8.682009 2.566321 4.592929
C 9.880813 2.011670 5.067014
H 0.661316 -1.473109 -0.074800
H 0.495785 0.035466 0.864281
H 1.201482 -1.416517 1.625221
H 2.444323 0.143574 -0.726987
H 3.148725 -1.300134 0.035074
H 4.376033 1.374944 -0.073857
H 5.089660 -0.016564 0.782169
H 4.737148 1.172016 2.958431
H 4.212917 2.626859 2.078315
H 6.342827 2.411627 -0.192310
H 7.608905 3.220438 0.749382
H 5.942604 3.872611 0.759852
H 6.217119 2.345313 3.981889
H 6.941554 3.714139 3.120261
H 8.144374 0.915991 3.490833
H 10.300420 1.594066 0.871675
H 8.746492 0.730175 1.065235
H 10.078354 0.458335 2.234491
H 10.106376 2.480195 6.034861
H 10.721916 2.201873 4.378553
H 9.791458 0.918575 5.216176