31
H19 C10 N1 O1
C 1.014467 0.126033 -0.292578
C 2.505928 -0.060210 -0.199759
C 2.959496 -0.858287 0.993570
C 3.326298 0.454992 -1.130065
C 4.825441 0.359334 -1.193243
N 5.254890 -0.449298 -2.329254
C 5.050181 -1.881779 -2.160719
C 6.131000 -2.550706 -1.304336
C 7.520461 -2.259406 -1.877581
C 7.741968 -0.757128 -2.078588
O 7.954762 -0.079892 -0.852099
C 6.572459 -0.156560 -2.871914
H 0.627309 0.632214 0.608193
H 0.502153 -0.849616 -0.346867
H 0.724696 0.718351 -1.172691
H 2.438857 -1.830194 1.017557
H 2.694067 -0.338923 1.930025
H 4.040107 -1.051156 1.006759
H 2.872518 0.991340 -1.973317
H 5.224904 0.004762 -0.221878
H 5.237112 1.371352 -1.335739
H 5.049687 -2.350708 -3.161796
H 4.051490 -2.051340 -1.729564
H 5.954965 -3.636829 -1.256316
H 6.059317 -2.186157 -0.263601
H 7.617149 -2.757369 -2.857514
H 8.314654 -2.662885 -1.229454
H 8.665651 -0.602547 -2.660186
H 7.255102 -0.331267 -0.238960
H 6.621001 -0.559566 -3.900436
H 6.703083 0.934563 -2.942296