12
H6 C4 O2
C 1.024091 -0.086688 0.200590
C 2.486309 0.163682 -0.038773
O 3.098570 1.079943 0.463923
C 3.214932 -0.792873 -0.944296
C 2.746539 -1.003009 -2.324194
O 2.550655 -1.977494 -1.327996
H 0.593864 0.744698 0.772958
H 0.907585 -1.024612 0.766327
H 0.478139 -0.214737 -0.746129
H 4.288321 -0.882008 -0.734613
H 3.487444 -1.243732 -3.095494
H 1.843810 -0.488530 -2.676753