21
H10 C6 O5
C 1.334192 -0.151408 -0.084170
O 2.673803 0.283531 0.123380
C 3.244000 0.923486 -0.883251
O 2.730475 1.166754 -1.945312
O 4.480760 1.249141 -0.521137
C 5.255528 1.994355 -1.450845
C 5.097845 3.484974 -1.198913
C 6.690728 1.505618 -1.316849
O 7.054607 0.585158 -0.635761
O 7.494086 2.231480 -2.087928
C 8.873940 1.878484 -2.094026
H 1.030129 -0.649033 0.843503
H 1.277823 -0.860431 -0.922576
H 0.671455 0.702908 -0.283438
H 4.924745 1.753193 -2.473784
H 5.430626 3.744877 -0.183242
H 4.041531 3.766997 -1.312600
H 5.688567 4.057252 -1.925747
H 9.365243 2.577365 -2.780133
H 9.011061 0.846795 -2.448577
H 9.305745 1.976055 -1.087724