25
H17 C7 N1
C 0.827140 -0.088694 -2.305057
N 2.266553 0.056901 -2.318577
C 2.986774 -0.568829 -1.214830
C 2.641155 0.020763 0.158726
C 4.502343 -0.517126 -1.445482
C 5.057390 -1.287395 -2.656535
C 4.904756 -0.526855 -3.975091
C 6.525259 -1.652654 -2.424384
H 0.400241 0.366149 -3.212349
H 0.312188 0.365779 -1.434163
H 0.561112 -1.158775 -2.318584
H 2.519252 1.043339 -2.368856
H 2.687421 -1.634064 -1.210394
H 2.934223 1.083507 0.206449
H 3.167928 -0.512687 0.965285
H 1.563291 -0.043357 0.371194
H 4.975866 -0.918055 -0.533804
H 4.820831 0.541741 -1.505328
H 4.485778 -2.230311 -2.739493
H 5.481625 0.414110 -3.947830
H 3.852326 -0.274606 -4.158928
H 5.280989 -1.122526 -4.822876
H 7.136159 -0.744527 -2.282013
H 6.943059 -2.201884 -3.283501
H 6.650899 -2.282443 -1.529038