24
H15 C8 N1
C 0.184681 1.140238 -0.061076
C 1.051858 -0.129331 0.070658
C -0.218739 -0.986971 -0.117333
N -0.378071 -1.385915 -1.502131
C -1.576777 -2.161467 -1.762598
C -1.681376 -2.527852 -3.222306
C -0.928914 -3.722887 -3.744904
C -2.430141 -3.759858 -3.641630
C -1.056734 0.269975 0.226876
H 0.181934 1.527220 -1.090338
H 0.393643 1.971356 0.628861
H 1.467932 -0.241738 1.082831
H 1.857837 -0.283803 -0.663913
H -0.335337 -1.840715 0.583073
H 0.433961 -1.935053 -1.783259
H -2.455133 -1.560116 -1.470786
H -1.623258 -3.090367 -1.151017
H -1.741968 -1.665994 -3.895445
H -0.356083 -4.313987 -3.023115
H -0.478636 -3.659825 -4.739114
H -2.871787 -4.379114 -2.854815
H -3.013322 -3.719263 -4.565391
H -1.336114 0.289445 1.291083
H -1.958256 0.444793 -0.379894