23
H14 C7 O2
O 0.867813 -0.072236 0.044856
C 2.271205 -0.042299 0.156467
C 2.852094 0.566755 -1.105147
C 4.375327 0.644145 -1.084427
C 4.947831 1.260019 -2.359903
C 6.467983 1.377062 -2.429066
C 7.189460 1.989358 -1.216559
O 7.753810 0.727464 -0.851585
C 7.293462 0.131024 -2.066495
H 0.511982 -0.460132 0.851407
H 2.685567 -1.060943 0.296704
H 2.592465 0.554494 1.033730
H 2.424710 1.575933 -1.236687
H 2.516545 -0.031065 -1.970261
H 4.784696 -0.370125 -0.939097
H 4.693244 1.232203 -0.206642
H 4.517657 2.268102 -2.495385
H 4.607759 0.667752 -3.227793
H 6.751280 1.831976 -3.388880
H 6.554084 2.414680 -0.420653
H 7.966411 2.731193 -1.475818
H 6.734121 -0.804443 -1.892968
H 8.123845 -0.083826 -2.763266