20
H12 C6 O2
C 2.576363 1.522304 0.203201
C 2.503680 0.019721 -0.039045
O 1.197290 -0.362855 -0.418440
C 3.020833 -0.814127 1.148168
C 4.475375 -0.512246 1.476825
C 2.076200 -0.863787 2.367797
O 1.806267 -2.250802 2.176820
C 2.676811 -2.314137 1.044394
H 3.611958 1.872657 0.316071
H 2.019603 1.800544 1.114358
H 2.127348 2.055062 -0.648020
H 3.137978 -0.231959 -0.906941
H 0.584612 -0.045843 0.256753
H 4.600553 0.512627 1.858293
H 5.114033 -0.625352 0.585511
H 4.848651 -1.200935 2.250178
H 1.160396 -0.245744 2.308903
H 2.561409 -0.656088 3.338344
H 2.143499 -2.612425 0.127412
H 3.527650 -2.999095 1.209128