22
H13 C6 N1 O2
C 5.423028 6.859385 -0.497109
C 4.308406 6.034227 -1.130607
C 3.660021 6.749085 -2.314561
N 4.821095 4.733488 -1.527494
C 4.190721 3.566757 -1.295599
O 3.131948 3.458116 -0.691079
C 4.897449 2.333266 -1.882737
C 4.904873 1.184217 -0.888213
O 6.184803 2.626898 -2.379222
H 5.040803 7.834645 -0.160323
H 6.232469 7.045615 -1.222596
H 5.853132 6.337737 0.371239
H 3.533886 5.830437 -0.376402
H 4.399477 6.932899 -3.111322
H 3.243575 7.719781 -2.004252
H 2.843218 6.143785 -2.736148
H 5.665398 4.689011 -2.090416
H 4.293961 2.046146 -2.760853
H 5.505208 1.443733 -0.000086
H 5.333643 0.284378 -1.352296
H 3.882869 0.961605 -0.555061
H 6.798017 2.623810 -1.632152