21
H13 C6 N1 O1
C 1.028516 -0.070004 -0.191590
C 2.551392 -0.119638 -0.163245
O 3.050666 0.151454 1.128351
C 3.066323 -1.448537 -0.715926
N 4.514183 -1.508953 -0.755192
C 5.134577 -2.451002 -1.662603
C 5.247722 -0.985052 -1.899764
C 4.581679 -0.329774 -3.085838
H 0.674159 0.884358 0.224943
H 0.602335 -0.888038 0.413687
H 0.639628 -0.167007 -1.216833
H 2.943764 0.691203 -0.800008
H 2.797159 -0.585469 1.697884
H 2.593082 -1.628241 -1.701266
H 2.717325 -2.263834 -0.055818
H 4.476481 -3.005342 -2.345880
H 5.978469 -3.031791 -1.272753
H 6.188873 -0.500889 -1.609278
H 3.677706 -0.861704 -3.413128
H 5.281323 -0.311801 -3.935785
H 4.307008 0.712710 -2.860616