32
H21 C9 N1 O1
C 6.070697 -1.152876 3.792728
C 5.527234 -1.839871 2.544838
C 5.340750 -0.864384 1.382536
C 4.801911 -1.440419 0.056829
C 3.270858 -1.536051 -0.021514
C 2.582950 -2.482229 0.957542
N 5.390189 -2.740092 -0.252577
C 6.799708 -2.707629 -0.581357
C 7.399695 -4.104290 -0.749059
C 6.756210 -4.906377 -1.872004
O 8.799228 -4.006712 -0.924648
H 6.215479 -1.868993 4.616759
H 5.384068 -0.367845 4.150503
H 7.043706 -0.673788 3.593570
H 4.576457 -2.337721 2.786953
H 6.215213 -2.644063 2.238651
H 6.315641 -0.383649 1.188165
H 4.670024 -0.043569 1.691701
H 5.083706 -0.700489 -0.725428
H 2.860123 -0.519746 0.096224
H 3.017045 -1.843512 -1.052086
H 2.624962 -2.107006 1.991056
H 3.044667 -3.481257 0.940987
H 1.519269 -2.598614 0.697365
H 4.875503 -3.141902 -1.034133
H 7.352933 -2.214263 0.232821
H 7.012083 -2.118891 -1.504519
H 7.256982 -4.646678 0.200476
H 6.832434 -4.364619 -2.830637
H 5.691825 -5.103366 -1.671932
H 7.264080 -5.876242 -1.981586
H 8.954641 -3.568447 -1.770774