24
H14 C7 N1 O1 F1
C 2.240274 0.176980 -1.167569
C 2.641367 -0.252360 0.238528
C 3.714916 -1.348268 0.242291
C 4.490116 -1.096462 1.532308
O 5.750743 -1.700526 1.615379
C 4.502461 0.435592 1.574869
N 3.211154 0.856988 1.038364
C 2.308553 1.434016 2.011944
C 1.179145 2.210674 1.362074
F 0.443361 2.844301 2.352883
H 1.869845 -0.684926 -1.745624
H 3.107885 0.601359 -1.697487
H 1.445703 0.937423 -1.152825
H 1.743202 -0.639735 0.759265
H 4.401884 -1.212077 -0.612727
H 3.288227 -2.359000 0.173857
H 3.912356 -1.478358 2.390222
H 6.274629 -1.394254 0.863976
H 5.337596 0.794173 0.939961
H 4.669018 0.832620 2.586557
H 2.869747 2.146896 2.635236
H 1.868142 0.675607 2.696974
H 0.490231 1.557580 0.804007
H 1.583513 2.974061 0.677939