32
H21 C9 N1 O1
C 5.249492 5.480455 1.114072
C 6.518963 4.942786 0.464335
C 6.418605 3.502754 -0.065261
C 5.481162 3.389821 -1.263238
N 5.971309 2.580492 0.971131
C 6.892903 2.388905 2.075059
C 6.417497 1.293086 3.034890
C 5.025609 1.600999 3.586032
C 7.409102 1.066901 4.182078
C 8.793822 0.574454 3.776588
O 9.568557 0.179557 4.885759
H 5.400161 6.510358 1.473353
H 4.949720 4.862932 1.974440
H 4.403494 5.498776 0.409042
H 7.349382 5.003229 1.187411
H 6.813555 5.589712 -0.378956
H 7.440148 3.229919 -0.416167
H 4.443030 3.624576 -0.980774
H 5.493055 2.366194 -1.671527
H 5.786172 4.075449 -2.068260
H 5.786105 1.674665 0.542229
H 6.980357 3.331887 2.644423
H 7.915916 2.150804 1.713149
H 6.356156 0.350984 2.456242
H 5.041013 2.529326 4.182376
H 4.668832 0.788884 4.238935
H 4.296412 1.738189 2.775375
H 6.988128 0.318341 4.874188
H 7.513998 2.003249 4.762241
H 9.324588 1.340754 3.180772
H 8.694550 -0.315142 3.132576
H 9.691639 0.955192 5.445417