21
H12 C6 N1 O1 F1
O 0.821959 -0.004472 -0.289902
C 2.198554 -0.017334 0.005049
C 2.943875 -0.111366 -1.324854
N 4.382790 -0.136501 -1.263045
C 5.167790 0.940720 -0.660074
C 6.223509 -0.108473 -0.251371
C 7.390898 -0.168990 -1.203773
F 8.151742 -1.304465 -0.955705
C 5.127028 -1.158649 -0.526755
H 0.336893 0.052207 0.540017
H 2.464330 -0.877630 0.649028
H 2.503129 0.899501 0.545672
H 2.634287 0.743640 -1.950467
H 2.599242 -1.021615 -1.845320
H 4.699597 1.419823 0.220348
H 5.487931 1.735160 -1.358352
H 6.582289 -0.051023 0.785457
H 8.044430 0.710579 -1.086148
H 7.039263 -0.216596 -2.247614
H 4.640772 -1.502064 0.405870
H 5.416611 -2.046583 -1.116040