23
H15 C7 N1
C 0.893088 0.138571 -0.294063
C 2.408559 0.133169 -0.022573
C 2.817098 -1.225280 0.554755
C 3.160662 0.389964 -1.331746
N 2.831918 1.158351 0.932355
C 2.581980 2.585274 0.711376
C 2.454860 2.762859 2.235229
C 2.290476 1.233181 2.291947
H 0.630548 -0.648055 -1.018414
H 0.559508 1.099984 -0.714826
H 0.315459 -0.051683 0.623949
H 2.580893 -2.037554 -0.149850
H 2.283633 -1.434802 1.495842
H 3.898291 -1.246524 0.763019
H 2.932195 -0.390155 -2.074186
H 4.247930 0.398335 -1.156935
H 2.877494 1.360482 -1.769962
H 1.629883 2.803758 0.188384
H 3.390493 3.131483 0.196357
H 1.615138 3.369402 2.599060
H 3.387580 3.108017 2.702436
H 1.226760 0.934063 2.374099
H 2.862522 0.683330 3.058588