30
H19 C9 N1 O1
C 0.803477 -0.213995 -0.509317
O 2.168237 -0.007641 -0.300552
C 2.504626 1.338597 -0.117320
C 4.008725 1.436101 0.071415
N 4.441645 2.772398 0.400142
C 4.295543 3.765109 -0.649137
C 5.120214 4.942200 -0.139128
C 5.448010 5.994583 -1.186005
C 6.338864 4.224879 0.456877
C 5.810472 2.855412 0.936757
C 5.819898 2.686512 2.450784
H 0.635966 -1.292958 -0.638685
H 0.438153 0.307551 -1.416107
H 0.194770 0.133877 0.348624
H 1.998156 1.761402 0.774910
H 2.176219 1.939405 -0.989757
H 4.512244 1.046320 -0.843191
H 4.281102 0.759966 0.897450
H 3.238677 4.030172 -0.814189
H 4.703395 3.408498 -1.624674
H 4.551412 5.414658 0.680127
H 6.010096 5.554991 -2.026716
H 6.062767 6.801956 -0.757780
H 4.533105 6.452680 -1.594372
H 6.812499 4.798375 1.268144
H 7.098118 4.084671 -0.329526
H 6.435803 2.053116 0.494460
H 5.257205 3.503029 2.931210
H 6.849606 2.694294 2.842026
H 5.356056 1.732163 2.746889