34
H21 C10 N1 O2
C 2.979255 -2.935479 -0.789861
C 3.672216 -2.445246 0.476135
C 3.297047 -1.029165 0.908530
C 1.809599 -0.873081 1.222648
N 1.453031 0.463828 1.667111
C 1.507565 0.632178 3.110064
C 1.285416 2.089182 3.472210
O 0.076555 2.579971 2.940403
C -0.043343 2.402822 1.536939
C 0.864390 3.346873 0.754701
C 0.171738 0.932790 1.169375
O 4.085296 -0.697014 2.040010
C 4.800143 0.501312 1.934654
H 3.390054 -3.905648 -1.108153
H 3.119252 -2.226198 -1.622093
H 1.896475 -3.071732 -0.644926
H 4.764689 -2.457404 0.330708
H 3.463472 -3.130818 1.315631
H 3.534425 -0.330878 0.083164
H 1.510238 -1.641123 1.967992
H 1.247405 -1.096544 0.303288
H 2.483833 0.297310 3.483868
H 0.726841 0.011604 3.608685
H 2.146450 2.693335 3.127049
H 1.219403 2.201305 4.564556
H -1.090135 2.657908 1.309498
H 1.921880 3.054789 0.828606
H 0.755068 4.375254 1.130866
H 0.587714 3.338077 -0.310504
H 0.138479 0.827532 0.074062
H -0.669516 0.335409 1.588340
H 5.358791 0.643379 2.871687
H 4.136182 1.372793 1.788397
H 5.528204 0.477429 1.100761