25
H15 C7 N1 O2
C 1.178730 -0.582250 0.074161
C 2.637631 -0.184886 0.245724
N 2.998208 1.006771 -0.507959
C 2.324850 2.224599 -0.049786
C 1.337822 2.782666 -1.065851
C 4.422386 1.150779 -0.716414
C 4.782297 1.982043 -1.952310
O 4.506890 3.342107 -1.812816
C 6.239961 1.792291 -2.300830
O 6.976827 2.738914 -2.443119
H 0.972376 -1.515723 0.620162
H 0.944396 -0.743301 -0.989918
H 0.491650 0.185230 0.462754
H 3.269434 -1.013965 -0.110255
H 2.860453 -0.067503 1.330631
H 3.078499 2.996330 0.173068
H 1.801634 2.022548 0.902437
H 1.861074 3.058043 -1.993845
H 0.841316 3.685909 -0.675155
H 0.558839 2.044638 -1.312649
H 4.848020 0.146321 -0.869385
H 4.948229 1.594552 0.158644
H 4.216288 1.548040 -2.804124
H 5.339387 3.798323 -2.017593
H 6.595023 0.746044 -2.432161