27
H17 C8 N1 O1
C 6.966441 6.365226 -0.454767
C 6.322332 5.012047 -0.171523
C 6.798052 3.864360 -1.081439
C 8.305732 3.636667 -0.962853
N 6.122864 2.592533 -0.838686
C 4.826445 2.279361 -1.401921
C 3.581947 3.186134 -1.130822
C 3.772784 3.804770 -2.529113
O 2.659514 4.119794 -3.307926
C 4.657668 2.599007 -2.909225
H 6.497471 7.157485 0.149148
H 6.849713 6.644790 -1.515217
H 8.042768 6.372753 -0.224475
H 5.232265 5.114879 -0.274025
H 6.507075 4.720421 0.878813
H 6.590653 4.154990 -2.125204
H 8.575108 3.361464 0.071441
H 8.884465 4.531769 -1.235180
H 8.616042 2.813347 -1.623098
H 6.137432 2.373140 0.155437
H 4.634242 1.224661 -1.153087
H 3.587196 3.846652 -0.251643
H 2.664750 2.574522 -1.108023
H 4.374058 4.726122 -2.470327
H 2.107043 3.330455 -3.366269
H 5.565847 2.779926 -3.503962
H 4.057781 1.821598 -3.408475