33
H21 C10 N1 O1
C 8.878055 -2.771338 -9.837112
C 8.868469 -2.009449 -8.737676
C 8.629950 -0.526489 -8.772309
C 9.105532 -2.600672 -7.364629
N 7.952233 -2.457165 -6.492096
C 6.809075 -3.270983 -6.902678
C 5.669664 -2.462848 -7.509855
C 8.267549 -2.537017 -5.077400
C 7.210223 -1.886779 -4.192837
C 7.584291 -1.894859 -2.711013
C 6.497984 -1.273889 -1.843027
O 8.836148 -1.268976 -2.487156
H 8.714322 -2.344808 -10.832196
H 9.057475 -3.850050 -9.779099
H 8.346293 -0.174644 -9.774548
H 9.538407 0.015028 -8.457587
H 7.837898 -0.252255 -8.058490
H 9.946481 -2.058392 -6.900415
H 9.423062 -3.660986 -7.469245
H 6.429393 -3.833480 -6.032611
H 7.137548 -4.037870 -7.629028
H 5.304982 -1.704852 -6.799015
H 4.824389 -3.117762 -7.776352
H 5.994846 -1.942986 -8.424091
H 9.219356 -2.013168 -4.905131
H 8.426258 -3.588361 -4.743604
H 6.239164 -2.394994 -4.312457
H 7.062356 -0.842339 -4.523904
H 7.732585 -2.941980 -2.395052
H 6.317425 -0.226333 -2.138478
H 6.798851 -1.286108 -0.784745
H 5.547937 -1.821088 -1.940869
H 8.746511 -0.344648 -2.752536