23
H15 C6 N1 O1
C 0.925707 0.124389 0.140605
C 2.433006 -0.000132 -0.089191
C 2.718302 -0.996223 -1.214684
C 3.046419 1.386254 -0.336946
C 4.570696 1.493627 -0.237528
O 5.243991 0.744802 -1.227750
C 5.009596 2.961041 -0.240475
N 6.454145 3.106995 -0.154170
H 0.468251 -0.858727 0.335961
H 0.428707 0.551831 -0.747161
H 0.697641 0.778186 0.997603
H 2.882796 -0.397689 0.839593
H 2.285205 -0.639142 -2.165387
H 2.269719 -1.978431 -0.993868
H 3.796864 -1.127541 -1.369089
H 2.618185 2.089550 0.397204
H 2.730072 1.755644 -1.331862
H 4.888172 1.045508 0.722040
H 5.037930 1.142313 -2.082976
H 4.458732 3.475327 0.573031
H 4.664437 3.422715 -1.184259
H 6.778682 2.721332 0.733333
H 6.690577 4.097701 -0.118602