33
H21 C10 N1 O1
C 1.891350 -3.574897 -1.907053
C 1.915907 -2.053604 -1.796472
C 2.786444 -1.488238 -0.660488
C 2.220878 -0.169403 -0.148897
O 2.106083 0.757698 -1.189796
C 1.552058 1.972162 -0.784621
N 4.181346 -1.284080 -1.036031
C 4.983273 -2.462742 -1.306079
C 6.491340 -2.122942 -1.347030
C 6.458738 -2.148657 -2.894408
C 6.419341 -0.774061 -3.544227
C 5.080954 -2.850105 -2.807040
H 1.227939 -3.895110 -2.725837
H 1.511560 -4.029464 -0.977567
H 2.883688 -4.004994 -2.102544
H 0.881440 -1.708645 -1.634774
H 2.241782 -1.595611 -2.743402
H 2.708980 -2.195088 0.197511
H 1.230400 -0.360511 0.313457
H 2.874511 0.228806 0.656970
H 1.499629 2.634786 -1.660503
H 2.164895 2.470059 -0.006957
H 0.528449 1.848061 -0.378114
H 4.632838 -0.759519 -0.289244
H 4.716235 -3.305227 -0.634657
H 7.107052 -2.927363 -0.919401
H 6.780853 -1.169259 -0.875016
H 7.252515 -2.757654 -3.355384
H 5.624593 -0.160074 -3.092350
H 6.216260 -0.851935 -4.624917
H 7.377829 -0.244454 -3.416985
H 5.152778 -3.939169 -2.948096
H 4.289414 -2.456248 -3.461558