28
H18 C8 N2
C 1.068616 0.826834 -0.117908
N 2.369651 0.250994 0.153119
C 2.768424 -0.745514 -0.823265
C 4.216850 -1.211175 -0.636673
C 4.458423 -1.799840 0.758930
N 4.594522 -2.064579 -1.763804
C 4.107137 -3.440054 -1.760322
C 5.238425 -4.324253 -1.184952
C 6.518965 -3.485207 -1.381133
C 6.019581 -2.180551 -2.046108
H 0.788439 1.521015 0.688980
H 0.253796 0.078121 -0.218722
H 1.096634 1.403931 -1.057168
H 2.349662 -0.173790 1.078283
H 2.693053 -0.299133 -1.828700
H 2.090495 -1.628696 -0.825432
H 4.839959 -0.305751 -0.723876
H 3.803356 -2.664584 0.953772
H 4.262644 -1.046215 1.537492
H 5.503308 -2.121671 0.879533
H 3.893570 -3.747074 -2.799694
H 3.164931 -3.530422 -1.201429
H 5.287948 -5.295289 -1.699618
H 5.065801 -4.530746 -0.118456
H 7.263402 -3.995257 -2.010314
H 7.002803 -3.273807 -0.415901
H 6.164718 -2.252080 -3.139358
H 6.559316 -1.284738 -1.705855