35
H22 C10 N1 O1 F1
C 1.505577 -1.841017 0.018002
C 2.509141 -0.703532 0.171546
C 3.662064 -1.063000 1.105433
C 4.796845 -0.032085 1.215531
C 4.311382 1.360527 1.661161
C 3.989489 2.323099 0.522234
N 5.869600 -0.461973 2.116235
C 6.612282 -1.677305 1.796975
C 8.107240 -1.360629 1.989858
O 8.404824 -0.112054 1.441878
C 6.171443 -2.897017 2.609522
C 6.932798 -4.160581 2.271023
F 6.365221 -5.237038 2.941875
H 0.675407 -1.559973 -0.648537
H 1.071495 -2.122088 0.991549
H 1.982801 -2.741014 -0.403136
H 1.985137 0.190505 0.547650
H 2.911697 -0.430953 -0.819848
H 4.094095 -2.018794 0.762935
H 3.266664 -1.248594 2.121679
H 5.259964 0.072855 0.217053
H 5.107540 1.807927 2.277243
H 3.435279 1.250323 2.324483
H 4.881828 2.507257 -0.097759
H 3.651254 3.295212 0.913713
H 3.200196 1.940735 -0.141029
H 5.541193 -0.478475 3.081130
H 6.457973 -1.884012 0.723490
H 8.732156 -2.123351 1.496919
H 8.340914 -1.399357 3.076831
H 7.595638 0.394600 1.646799
H 5.102487 -3.088172 2.432939
H 6.291020 -2.679391 3.685080
H 7.990446 -4.105497 2.572566
H 6.886129 -4.372876 1.189956