30
H19 C9 N1 O1
C 1.524008 -0.873921 0.288738
C 2.309528 0.081520 -0.211309
C 3.088391 -0.016569 -1.489738
C 4.593571 0.136210 -1.254294
N 5.395308 -0.064569 -2.450538
C 5.182340 0.974732 -3.437598
C 6.806459 -0.243795 -2.136000
C 7.579970 -0.973119 -3.230129
C 9.082570 -1.094806 -2.970004
C 9.421567 -1.900464 -1.721951
O 9.735612 -1.627171 -4.108164
H 0.983828 -0.735043 1.230205
H 1.387854 -1.831113 -0.227596
H 2.416569 1.023588 0.343214
H 2.735306 0.773704 -2.173784
H 2.899928 -0.983923 -1.983342
H 4.899873 -0.618158 -0.512105
H 4.792326 1.131280 -0.791269
H 4.138705 0.985627 -3.783237
H 5.809098 0.801583 -4.323342
H 5.422966 1.989190 -3.046351
H 6.867531 -0.831278 -1.207350
H 7.300214 0.731688 -1.918507
H 7.464381 -0.455559 -4.195189
H 7.150569 -1.983657 -3.356349
H 9.496846 -0.078325 -2.853780
H 8.977214 -2.909048 -1.778497
H 9.048904 -1.415802 -0.806962
H 10.512591 -2.008929 -1.629199
H 9.393395 -2.519773 -4.242991