30
H19 C8 N1 O2
C 1.113656 0.170447 0.269812
O 2.503518 0.057183 0.120425
C 3.045847 0.937217 -0.832560
C 4.539361 0.672423 -0.988225
C 4.806496 -0.801388 -1.321841
O 4.573843 -1.659834 -0.239282
N 5.047201 1.532695 -2.044930
C 6.459420 1.860059 -1.936426
C 6.999495 2.570530 -3.179815
C 6.265398 3.882287 -3.458576
C 8.503282 2.801874 -3.043096
H 0.796265 -0.550610 1.035266
H 0.582486 -0.054013 -0.673909
H 0.824994 1.186193 0.597643
H 2.877517 1.988557 -0.523538
H 2.550040 0.797611 -1.814993
H 5.024275 0.880146 -0.010101
H 5.860956 -0.921546 -1.617964
H 4.195708 -1.067898 -2.210422
H 3.709098 -1.400218 0.112242
H 4.510829 2.397963 -2.057153
H 7.024763 0.924316 -1.796960
H 6.675501 2.484773 -1.040452
H 6.826706 1.893980 -4.035808
H 6.352420 4.572134 -2.601457
H 5.194492 3.720264 -3.658143
H 6.687105 4.389910 -4.340444
H 8.724453 3.474086 -2.196735
H 8.918700 3.264396 -3.952096
H 9.042936 1.857073 -2.870053