39
H25 C12 N1 O1
C 0.065531 -0.044118 -2.403134
C 1.196325 0.458991 -1.524522
O 0.819527 0.342527 -0.173300
C 2.515621 -0.315248 -1.725784
C 3.125738 -0.121350 -3.112589
N 3.420904 -0.010825 -0.610823
C 4.096979 1.277957 -0.689212
C 4.646100 1.777648 0.651168
C 3.614547 1.813972 1.793436
C 3.979063 0.992640 3.037642
C 4.313743 -0.489026 2.819151
C 3.216523 -1.324202 2.129550
C 3.645119 -2.033406 0.839205
C 4.271010 -1.131795 -0.226309
H -0.866293 0.484921 -2.152229
H -0.098986 -1.122217 -2.244738
H 0.273684 0.128440 -3.469176
H 1.377775 1.526035 -1.775604
H 1.678538 0.214726 0.270559
H 2.255717 -1.381244 -1.609355
H 3.271535 0.944228 -3.349030
H 2.479609 -0.553322 -3.890731
H 4.103577 -0.622994 -3.180730
H 3.365315 2.015081 -1.057237
H 4.925375 1.267482 -1.427982
H 5.055414 2.784419 0.470877
H 5.515523 1.167319 0.943710
H 2.638796 1.482950 1.406893
H 3.454371 2.854943 2.117339
H 3.142619 1.067826 3.754765
H 4.844320 1.466751 3.533945
H 4.545659 -0.925217 3.804095
H 5.255056 -0.565265 2.250814
H 2.344706 -0.686253 1.917199
H 2.839385 -2.090844 2.825107
H 2.768220 -2.549590 0.411492
H 4.377397 -2.824732 1.078255
H 4.541239 -1.746659 -1.106867
H 5.224879 -0.737979 0.151119