20
H13 C6 N1
C 0.881546 0.101192 -0.055285
C 2.344052 -0.270041 -0.233379
N 3.012655 0.665340 -1.124656
C 4.420303 0.422336 -1.328734
C 4.711152 -0.724667 -2.272841
C 5.318930 1.621152 -1.373178
C 5.392172 0.677482 -0.194313
H 0.367555 -0.623293 0.594148
H 0.363763 0.125643 -1.026828
H 0.780402 1.096993 0.407189
H 2.412750 -1.282134 -0.665667
H 2.836185 -0.327323 0.761257
H 2.875203 1.611475 -0.774318
H 4.228225 -0.547804 -3.247203
H 4.332602 -1.679845 -1.875065
H 5.792704 -0.839618 -2.435932
H 4.866411 2.604629 -1.209794
H 6.142464 1.618923 -2.093190
H 4.973951 1.028295 0.754125
H 6.272425 0.034896 -0.096575