20
H12 C6 O2
C 0.958921 0.692416 -0.161843
C 2.259004 -0.065202 0.053444
O 2.491346 -1.053894 -0.924567
C 1.831617 -2.273647 -0.700280
C 2.216370 -3.270722 -1.804673
C 3.314456 -3.815938 -0.866020
O 3.613605 -5.175984 -0.857124
C 2.557901 -3.183194 0.322098
H 0.859137 1.493142 0.587240
H 0.080432 0.035489 -0.068187
H 0.941368 1.151229 -1.162501
H 2.280124 -0.508082 1.067391
H 3.109441 0.632236 -0.006548
H 0.752080 -2.117030 -0.530670
H 2.511263 -2.842637 -2.773986
H 1.423155 -4.019803 -1.954730
H 4.263869 -3.288197 -1.040441
H 2.792705 -5.659883 -0.703333
H 3.140679 -2.699155 1.120237
H 1.859088 -3.908244 0.769632