29
H19 C8 N1 O1
C 0.994479 -1.159664 -1.705685
C 2.319791 -1.065576 -2.454566
C 3.051408 -2.418309 -2.635432
C 2.794649 -3.047704 -4.012134
C 1.332087 -3.278151 -4.370986
N 4.498070 -2.335899 -2.426831
C 5.013057 -2.545189 -1.077517
C 4.772481 -1.415160 -0.080844
C 6.503945 -2.865348 -1.226610
O 6.696305 -3.845938 -2.204806
H 0.510198 -0.173753 -1.626392
H 1.148719 -1.538111 -0.681787
H 0.286014 -1.838922 -2.203195
H 2.981564 -0.375548 -1.909752
H 2.159723 -0.603850 -3.444961
H 2.668028 -3.117622 -1.870708
H 3.336858 -4.007039 -4.043677
H 3.266350 -2.402073 -4.775212
H 0.827453 -3.905059 -3.617643
H 1.247072 -3.792512 -5.340721
H 0.771441 -2.333972 -4.452664
H 4.859323 -1.460276 -2.807837
H 4.523374 -3.460470 -0.700990
H 5.183086 -0.463969 -0.458015
H 5.259606 -1.637585 0.882235
H 3.699387 -1.271784 0.114565
H 6.909589 -3.225094 -0.266376
H 7.047137 -1.926644 -1.475020
H 5.975606 -3.657930 -2.833929