36
H23 C11 N1 O1
C 6.019614 3.502820 -2.273652
C 5.041995 2.942287 -1.247740
C 5.534398 1.639092 -0.620787
C 4.653893 1.050420 0.492660
C 3.428948 0.277127 0.000790
N 2.552261 0.947955 -0.938661
C 1.750844 0.010726 -1.710621
C 0.963632 0.721950 -2.805728
C 0.090890 1.830584 -2.222438
C 0.935795 2.762087 -1.357152
C 1.727686 1.976415 -0.318712
O 4.247006 2.016091 1.442832
C 5.282065 2.554724 2.212468
H 5.647343 4.441265 -2.713743
H 6.184763 2.791214 -3.099552
H 7.002106 3.714852 -1.819832
H 4.063648 2.763388 -1.716281
H 4.873734 3.686590 -0.451823
H 6.548684 1.802606 -0.215996
H 5.648090 0.867450 -1.401619
H 5.268023 0.292457 1.023198
H 3.817586 -0.626430 -0.494132
H 2.872983 -0.071351 0.901150
H 1.041347 -0.546148 -1.052867
H 2.421139 -0.739460 -2.159062
H 0.352381 -0.012755 -3.353507
H 1.676876 1.155806 -3.527847
H -0.701708 1.377868 -1.599790
H -0.415808 2.391044 -3.024227
H 0.302210 3.504629 -0.846391
H 1.639993 3.323929 -1.995295
H 1.019039 1.514989 0.410527
H 2.379012 2.644361 0.259046
H 4.827682 3.167179 3.004667
H 5.962388 3.201769 1.627852
H 5.891471 1.762387 2.690055