14
H8 C3 N1 O1 F1
N 2.558536 -2.834047 -2.447284
C 2.219671 -1.548610 -1.864085
C 2.893893 -1.323980 -0.511574
O 2.595635 -0.036025 -0.024979
C 4.404502 -1.544159 -0.522494
F 4.714021 -2.890422 -0.444002
H 2.071972 -2.943291 -3.335593
H 2.213812 -3.585624 -1.849970
H 1.133809 -1.379185 -1.719515
H 2.572970 -0.752963 -2.546246
H 2.479907 -2.033433 0.226068
H 2.872132 0.605429 -0.692049
H 4.835424 -1.041733 0.357946
H 4.867516 -1.131757 -1.435213