19
H12 C6 O1
C 1.097005 -0.024292 0.084777
C 2.429143 -0.095953 0.012972
O 3.073942 -1.087906 -0.623201
C 4.492855 -1.043335 -0.588418
C 5.037153 -2.223344 -1.365489
C 6.562776 -2.261836 -1.380879
C 7.118993 -3.447318 -2.160124
H 0.629219 0.808326 0.612556
H 0.460269 -0.784287 -0.377063
H 3.068580 0.667393 0.477569
H 4.842335 -1.077141 0.459786
H 4.848181 -0.093764 -1.028895
H 4.651752 -2.176177 -2.398273
H 4.642219 -3.152969 -0.921387
H 6.937019 -2.294538 -0.342932
H 6.946770 -1.322308 -1.814843
H 6.780030 -4.402708 -1.727752
H 8.219872 -3.449990 -2.155183
H 6.789019 -3.423323 -3.211379