39
H25 C12 N1 O1
C 1.167702 -0.573892 1.049497
C 2.010998 0.202559 0.366618
C 2.852131 1.299512 0.950089
C 4.353611 1.063267 0.761134
C 5.215785 2.195529 1.311285
C 6.711887 1.958933 1.129041
C 7.561857 3.097370 1.683821
N 8.990494 2.864437 1.556237
C 9.470943 2.854786 0.174324
C 9.975203 1.491545 -0.280972
C 9.798246 3.665301 2.453109
C 11.165144 3.048890 2.703596
O 11.852542 3.852648 3.620193
C 13.133905 3.384317 3.915898
H 0.589753 -1.362309 0.557634
H 1.020702 -0.448376 2.128505
H 2.127584 0.035771 -0.713005
H 2.624256 1.415920 2.023187
H 2.583000 2.254460 0.463065
H 4.569451 0.928221 -0.313742
H 4.634569 0.114608 1.251486
H 4.993913 2.334069 2.384683
H 4.930773 3.141587 0.816835
H 6.925107 1.816933 0.055557
H 7.010312 1.022852 1.632282
H 7.330698 3.211533 2.755308
H 7.254552 4.051783 1.196826
H 10.278028 3.600204 0.056274
H 8.664595 3.190405 -0.502261
H 10.810859 1.150672 0.350009
H 10.328714 1.530172 -1.324039
H 9.177229 0.735664 -0.218062
H 9.285494 3.736309 3.424865
H 9.940945 4.707770 2.089839
H 11.739919 2.963716 1.758560
H 11.033191 2.018534 3.093725
H 13.590931 4.071810 4.642168
H 13.780063 3.345839 3.016528
H 13.113095 2.369582 4.360245