31
H19 C10 N1 O1
C 6.202368 -1.698261 -2.441656
O 6.020765 -0.559645 -1.654112
C 4.672723 -0.213000 -1.481600
C 4.564401 1.070203 -0.650626
C 3.155655 1.190156 -0.074069
N 4.959805 2.334312 -1.254900
C 6.226192 2.500960 -1.971544
C 5.935212 2.033588 -3.423793
C 4.445325 2.421865 -3.592721
C 4.135078 3.067553 -2.219662
C 4.834125 4.441879 -2.171122
C 6.323262 4.038373 -1.982947
H 7.280887 -1.901393 -2.506693
H 5.809552 -1.559741 -3.468508
H 5.703478 -2.586119 -2.005573
H 4.145388 -1.026750 -0.942618
H 4.164281 -0.100849 -2.459174
H 5.261682 0.912939 0.192715
H 2.389568 1.171473 -0.865879
H 3.050186 2.132825 0.482624
H 2.944951 0.357918 0.613372
H 7.064084 1.980910 -1.489743
H 6.093193 0.952225 -3.519655
H 6.591885 2.534120 -4.151213
H 3.807929 1.542775 -3.768734
H 4.272105 3.122883 -4.423168
H 3.069631 3.099233 -1.959697
H 4.466695 5.028538 -1.316716
H 4.657620 5.028239 -3.085089
H 6.719503 4.406272 -1.025295
H 6.976550 4.410518 -2.786036