34
H21 C10 N1 O2
C 1.294947 0.711173 0.939896
O 2.338812 0.224853 0.151009
C 2.766047 -1.055368 0.523089
C 3.896505 -1.470594 -0.405368
N 4.456515 -2.762604 -0.062077
C 3.627917 -3.875814 -0.506620
C 4.153056 -5.206422 0.019887
C 5.617411 -5.449340 -0.366226
C 5.782973 -5.824897 -1.834747
O 5.068755 -7.001568 -2.100570
C 5.119036 -7.389082 -3.440348
C 6.446014 -4.211855 -0.000086
C 5.830540 -2.914857 -0.517741
H 1.028791 1.714116 0.576223
H 1.583072 0.791270 2.006761
H 0.394769 0.067723 0.880956
H 1.921521 -1.771737 0.472452
H 3.134473 -1.066371 1.569310
H 4.687352 -0.709154 -0.319224
H 3.534645 -1.435359 -1.456932
H 3.570124 -3.900577 -1.619547
H 2.598537 -3.728204 -0.148331
H 3.524338 -6.027283 -0.355359
H 4.069848 -5.202869 1.119505
H 5.993344 -6.308173 0.214680
H 6.860873 -5.969553 -2.056758
H 5.432967 -5.009078 -2.499415
H 4.536887 -8.315237 -3.551765
H 6.155899 -7.586107 -3.777856
H 4.686130 -6.621049 -4.111546
H 7.476099 -4.305737 -0.380913
H 6.512817 -4.145692 1.098394
H 5.890158 -2.880288 -1.629830
H 6.419536 -2.061051 -0.147861