18
H10 C5 N1 O1 F1
O 0.903061 0.103764 -0.137143
C 2.284766 -0.058934 -0.334783
C 2.964005 1.268471 -0.052770
N 4.390255 1.177454 -0.231256
C 5.196261 2.389473 -0.051793
C 6.254944 1.559457 0.676138
F 7.306854 1.200736 -0.147975
C 5.190079 0.466441 0.775533
H 0.474409 -0.742623 -0.302325
H 2.524300 -0.367069 -1.370988
H 2.701837 -0.834764 0.337942
H 2.692237 1.599020 0.975933
H 2.568861 2.025019 -0.750572
H 4.731089 3.136166 0.620297
H 5.523875 2.890256 -0.977670
H 6.675922 1.959273 1.607943
H 4.718470 0.442436 1.777585
H 5.516574 -0.550676 0.504635