30
H17 C9 N1 O1 F2
C 2.509620 0.894926 -0.532338
C 2.232469 -0.322312 0.337278
O 0.964090 -0.233592 0.959756
C 3.296040 -0.588050 1.420370
N 4.664708 -0.818408 1.013043
C 4.852972 -1.866173 0.028533
C 6.306766 -2.332032 -0.002805
C 7.288499 -1.170514 -0.204255
C 7.274759 -0.662687 -1.631956
F 8.207299 0.320882 -1.789706
F 7.627732 -1.663404 -2.489575
C 6.981096 -0.054128 0.802544
C 5.506622 0.342882 0.792222
H 3.396645 0.745236 -1.164986
H 2.676572 1.793800 0.085000
H 1.649349 1.083749 -1.192603
H 2.167343 -1.209440 -0.314325
H 0.972504 0.552095 1.521028
H 2.939441 -1.466599 1.988069
H 3.286312 0.265359 2.122245
H 4.543151 -1.542619 -0.990697
H 4.205522 -2.717741 0.292244
H 6.440750 -3.092649 -0.786405
H 6.542949 -2.811188 0.960475
H 8.317261 -1.532965 -0.041633
H 6.307533 -0.260380 -1.971158
H 7.608350 0.827972 0.604889
H 7.241898 -0.422761 1.807285
H 5.278515 0.866444 -0.160700
H 5.319391 1.070885 1.596691