24
H12 C7 O3 F2
C 1.279642 0.232811 0.040314
C 2.774117 -0.038954 0.157577
C 3.125924 -1.033034 1.255219
C 2.575915 -2.431483 1.045389
O 4.571548 -1.090829 1.283840
C 5.152761 -1.416939 2.421267
O 4.613377 -1.636770 3.475236
O 6.470082 -1.460922 2.219161
C 7.262549 -1.790611 3.344145
C 8.698445 -1.801384 2.881811
F 9.083148 -0.554875 2.511096
F 9.478338 -2.172452 3.926930
H 1.090126 1.025922 -0.698092
H 0.856631 0.563865 1.002488
H 0.722177 -0.659121 -0.284107
H 3.306434 0.900868 0.374822
H 3.169775 -0.414917 -0.801037
H 2.788847 -0.644869 2.229065
H 2.899410 -2.835417 0.073363
H 1.476863 -2.416718 1.069198
H 2.916783 -3.106489 1.843660
H 7.001434 -2.785595 3.734339
H 7.142918 -1.047625 4.147995
H 8.878805 -2.485991 2.038560