27
H17 C8 N1 O1
C 1.163408 -0.327572 0.554025
C 2.601333 -0.125316 0.069380
N 2.789229 0.732890 -1.088122
C 2.219028 0.214405 -2.320316
C 2.713140 1.010819 -3.524475
C 2.435707 2.512608 -3.379910
C 0.961013 2.862580 -3.601596
O 0.469285 2.436345 -4.849716
C 2.938677 2.999554 -2.014884
C 2.439928 2.125322 -0.866148
H 1.152444 -0.994588 1.430078
H 0.530805 -0.788211 -0.220886
H 0.694692 0.622336 0.855496
H 3.040517 -1.109533 -0.168490
H 3.202749 0.290359 0.896268
H 1.106179 0.224115 -2.301053
H 2.517287 -0.841245 -2.427606
H 2.238219 0.631521 -4.442025
H 3.800224 0.854850 -3.624675
H 3.002229 3.045925 -4.165064
H 0.833286 3.955725 -3.471796
H 0.325144 2.380755 -2.842359
H 1.014916 2.842377 -5.534013
H 2.636268 4.045575 -1.841237
H 4.040991 2.976947 -2.014032
H 1.342993 2.265899 -0.741451
H 2.903667 2.457428 0.077048