36
H23 C11 N1 O1
C 0.803548 0.143828 -0.221963
C 2.295214 -0.039621 -0.474344
C 3.068812 1.275621 -0.466897
C 4.552863 1.090975 -0.717697
O 5.188328 2.340292 -0.699216
C 6.568261 2.277347 -0.923516
C 7.122481 3.693142 -0.884957
N 8.545178 3.743098 -1.159017
C 8.968045 5.023200 -1.709082
C 10.428927 4.985405 -2.144050
C 11.334988 4.563781 -0.989487
C 10.831721 3.258929 -0.377075
C 9.356106 3.365550 -0.008992
H 0.271490 -0.819988 -0.233940
H 0.345793 0.788009 -0.990275
H 0.620151 0.614889 0.757460
H 2.445114 -0.544875 -1.444425
H 2.717603 -0.715380 0.289705
H 2.935912 1.784372 0.503460
H 2.663250 1.954504 -1.236768
H 4.714949 0.590109 -1.695030
H 4.989981 0.423666 0.054451
H 6.793718 1.827319 -1.911744
H 7.053908 1.636282 -0.160731
H 6.865882 4.157042 0.093015
H 6.593121 4.273722 -1.656318
H 8.828685 5.843384 -0.965701
H 8.326564 5.263913 -2.571195
H 10.721008 5.974046 -2.532097
H 10.531020 4.265702 -2.974571
H 11.328183 5.352877 -0.216260
H 12.377696 4.460216 -1.329396
H 11.414261 2.994937 0.519684
H 10.957968 2.436230 -1.101817
H 9.235902 4.109313 0.814159
H 9.001107 2.401713 0.384568