22
H12 C7 O3
C 0.957228 0.025945 0.017589
C 2.467570 -0.090718 -0.029642
C 2.996381 0.178485 -1.433379
O 3.040539 0.917943 0.843241
C 4.169253 0.451723 1.382985
O 4.956740 1.116139 1.991310
O 4.299845 -0.856730 1.151472
C 3.054677 -1.382258 0.621556
C 2.241789 -1.892247 1.805645
C 3.372323 -2.504646 -0.346128
H 0.639674 0.967022 -0.454071
H 0.577690 0.009926 1.047151
H 0.502976 -0.805661 -0.540536
H 2.713881 1.197477 -1.734340
H 2.563190 -0.526510 -2.156474
H 4.092601 0.096730 -1.477795
H 2.007600 -1.086345 2.517027
H 2.821645 -2.661914 2.334931
H 1.299355 -2.344223 1.466342
H 4.098791 -2.195363 -1.108227
H 2.450819 -2.833415 -0.848347
H 3.788011 -3.363619 0.200022