29
H16 C8 N1 O1 F3
C 1.110532 -0.785355 0.080580
C 2.407339 0.006374 -0.057537
C 2.834471 0.397532 -1.493072
C 2.517935 -0.704688 -2.513659
N 2.303761 1.701981 -1.885829
C 0.886389 1.955026 -1.717700
C 0.559314 3.344722 -2.232653
O -0.803956 3.585234 -2.040158
C -1.210362 4.848296 -2.476027
C 4.358111 0.610002 -1.468112
F 4.743364 1.466119 -0.516599
F 5.026272 -0.533898 -1.254315
F 4.810120 1.100896 -2.634438
H 0.883126 -0.930270 1.147551
H 1.194789 -1.783904 -0.373070
H 0.246929 -0.282306 -0.375945
H 3.212613 -0.601887 0.382478
H 2.360032 0.930393 0.539012
H 1.430266 -0.787130 -2.644182
H 2.899498 -1.685023 -2.193980
H 2.957980 -0.462304 -3.492729
H 2.552873 1.867853 -2.860192
H 0.622416 1.920734 -0.650088
H 0.234148 1.224846 -2.238578
H 0.823690 3.421918 -3.308924
H 1.179192 4.091475 -1.695905
H -2.288280 4.946011 -2.283147
H -1.034610 4.989345 -3.560742
H -0.683454 5.661587 -1.939230