26
H15 C7 N1 O1 F2
C 0.867683 -0.001337 -0.108527
N 2.287939 -0.252310 0.056183
C 2.608547 -0.665833 1.408935
C 3.082090 0.501552 2.244216
F 2.097668 1.432749 2.395521
F 3.401273 0.071550 3.497113
C 2.953064 -1.004424 -1.027569
C 2.700518 -2.519707 -0.934876
C 2.474895 -0.501867 -2.392314
C 4.467489 -0.700272 -0.931876
O 5.237858 -1.336884 -1.919165
H 0.504200 0.575726 0.751780
H 0.257941 -0.927765 -0.171540
H 0.665787 0.601677 -1.003693
H 3.419993 -1.405112 1.432961
H 1.750424 -1.134117 1.927607
H 3.959985 1.006888 1.811917
H 1.620198 -2.731908 -0.916678
H 3.150224 -2.960353 -0.031129
H 3.120200 -3.044911 -1.806702
H 1.450801 -0.828092 -2.624916
H 3.142456 -0.904746 -3.166487
H 2.515800 0.597448 -2.443876
H 4.845548 -0.953632 0.074989
H 4.603275 0.384911 -1.064439
H 5.278595 -2.277239 -1.711116