32
H19 C9 N1 O1 F2
C 10.035424 0.238303 -1.841520
C 9.057382 -0.890142 -1.538667
C 9.162339 -2.032431 -2.543875
N 8.290367 -3.156294 -2.239954
C 6.862391 -2.854973 -2.321599
C 6.169171 -2.798601 -0.963400
C 4.652552 -2.652042 -1.071967
C 3.986309 -2.563807 0.294641
O 4.088259 -3.696486 -1.847438
C 8.677150 -4.394945 -2.871568
C 8.349088 -5.604534 -2.024899
F 7.001629 -5.806194 -1.934672
F 8.860287 -6.720379 -2.613169
H 9.944062 1.053341 -1.107564
H 9.854068 0.667986 -2.840171
H 11.078292 -0.117561 -1.817519
H 8.030134 -0.489470 -1.532071
H 9.241549 -1.295691 -0.529363
H 10.201731 -2.398404 -2.542662
H 8.972296 -1.632002 -3.565945
H 6.356472 -3.621081 -2.927790
H 6.707169 -1.897507 -2.853764
H 6.573467 -1.966852 -0.364523
H 6.396547 -3.725743 -0.407969
H 4.427250 -1.729257 -1.634561
H 4.198791 -3.469966 0.886808
H 2.895288 -2.472496 0.184904
H 4.352974 -1.694426 0.861786
H 4.341087 -4.530921 -1.432046
H 9.769420 -4.413159 -2.997838
H 8.227629 -4.550733 -3.875461
H 8.748224 -5.526726 -1.001556