30
H19 C10 N1
C 0.939946 -1.114001 0.294620
C 2.407444 -0.761598 0.499759
N 3.262775 -1.192928 -0.597068
C 3.103571 -0.372277 -1.779128
C 4.658492 -1.462572 -0.241993
C 5.267761 -0.498795 0.766720
C 6.734270 -0.178235 0.692766
C 5.715271 0.870619 0.336188
C 4.880976 -2.911691 0.189778
C 3.821175 -3.771818 0.823311
C 4.270894 -4.041430 -0.586547
H 0.350601 -0.819266 1.176694
H 0.818375 -2.198602 0.144896
H 0.504342 -0.601599 -0.576618
H 2.752233 -1.247389 1.423127
H 2.502331 0.332481 0.675813
H 2.056575 -0.382063 -2.118557
H 3.713374 -0.769882 -2.604052
H 3.388062 0.690760 -1.623351
H 5.238058 -1.336720 -1.172125
H 4.856626 -0.571136 1.778639
H 7.310604 -0.625009 -0.123552
H 7.287273 -0.067898 1.629163
H 5.608632 1.130308 -0.720660
H 5.564331 1.705493 1.025650
H 5.899144 -3.086198 0.553288
H 2.817928 -3.360606 0.952817
H 4.131463 -4.465730 1.609509
H 3.572587 -3.761055 -1.380778
H 4.876996 -4.929043 -0.787840