30
H17 C9 N1 O1 F2
C 0.934535 -0.150244 0.053541
C 2.453024 -0.045963 -0.072154
N 2.851347 0.348140 -1.418138
C 2.414834 -0.529618 -2.486041
C 3.012525 -0.074370 -3.803274
O 2.526863 -0.901508 -4.827196
C 3.018432 -0.575777 -6.087533
C 2.383200 -1.502848 -7.093581
F 1.049588 -1.262383 -7.184279
F 2.917583 -1.259364 -8.318421
C 2.980654 0.941763 0.962195
C 4.237515 1.749120 0.791611
C 2.892100 2.425902 0.745881
H 0.522477 -0.972788 -0.549347
H 0.456254 0.789037 -0.268682
H 0.654199 -0.339004 1.100761
H 2.874747 -1.043978 0.183890
H 3.868906 0.388681 -1.446485
H 1.318674 -0.493038 -2.582353
H 2.686528 -1.593816 -2.316608
H 4.120122 -0.122426 -3.760154
H 2.739574 0.983213 -3.987240
H 4.116698 -0.700813 -6.150558
H 2.778427 0.467459 -6.373580
H 2.525188 -2.566848 -6.847611
H 2.787061 0.603694 1.985659
H 4.798928 1.678584 -0.144428
H 4.864969 1.899436 1.674422
H 2.544845 2.759890 -0.235749
H 2.595323 3.061779 1.584422