33
H21 C10 N1 O1
C 2.224730 -1.777320 1.488195
C 2.558738 -0.464130 2.194098
C 3.184575 0.686541 1.379004
C 2.423522 1.025015 0.097292
O 2.973297 2.170539 -0.499845
N 4.607867 0.618125 1.064270
C 5.517767 0.858108 2.178955
C 6.832457 0.232454 1.729424
C 6.369136 -0.993448 0.929599
C 6.023626 -2.177475 1.829855
C 5.135550 -0.443674 0.181763
C 5.487998 0.093367 -1.205773
H 1.676960 -2.441614 2.175125
H 3.120373 -2.323584 1.161131
H 1.582799 -1.623324 0.606931
H 3.216520 -0.669730 3.055382
H 1.626770 -0.063452 2.628506
H 3.090288 1.581718 2.019027
H 2.450390 0.163273 -0.599725
H 1.362910 1.215988 0.330786
H 3.913178 2.121821 -0.256211
H 5.165875 0.375983 3.113108
H 5.610233 1.936492 2.393245
H 7.490760 -0.025336 2.572236
H 7.381425 0.928533 1.075698
H 7.141440 -1.310082 0.210932
H 5.228866 -1.921789 2.548875
H 6.903515 -2.506211 2.405286
H 5.669878 -3.035169 1.236311
H 4.390009 -1.242232 0.053601
H 6.283948 0.853059 -1.139478
H 4.615799 0.563036 -1.684015
H 5.840697 -0.718230 -1.862167