31
H19 C10 N1 O1
C 0.668546 0.649608 -0.339285
N 2.093361 0.393388 -0.271799
C 2.691144 0.220112 -1.582547
C 2.206356 -1.028967 -2.301586
O 3.006322 -1.201708 -3.445884
C 2.637597 -2.287883 -4.219613
C 3.716838 -2.952671 -5.002401
C 3.098806 -3.660801 -3.817776
C 2.842202 1.309379 0.561164
C 2.705548 2.856204 0.460840
C 2.945417 2.908407 1.984545
C 2.539870 1.420517 2.069676
H 0.132856 -0.230715 -0.724777
H 0.408343 1.510842 -0.991561
H 0.264259 0.853037 0.661648
H 3.780577 0.117838 -1.459304
H 2.523616 1.100336 -2.243131
H 1.142699 -0.942895 -2.594282
H 2.292562 -1.898399 -1.620805
H 1.641858 -2.203105 -4.678599
H 4.726171 -2.552991 -4.871822
H 3.484313 -3.307450 -6.009650
H 3.704320 -3.728000 -2.909325
H 2.435022 -4.510380 -3.998803
H 3.906672 1.049956 0.445770
H 1.675414 3.154658 0.212169
H 3.401556 3.396499 -0.198659
H 2.351445 3.627396 2.567235
H 4.009492 3.055485 2.224824
H 1.466290 1.316296 2.286981
H 3.101087 0.758765 2.746734