32
H21 C10 N1
C 1.323701 0.956709 0.824926
C 2.342574 0.277602 0.285369
C 2.846968 0.485830 -1.120865
C 2.129094 1.534770 -1.955457
C 3.063849 -0.799703 1.071294
N 4.502636 -0.583316 1.132200
C 4.811085 0.488554 2.056962
C 5.323344 -1.811749 1.256010
C 4.903944 -2.675164 2.459929
C 5.196168 -2.630674 -0.037237
C 6.801065 -1.427839 1.409601
H 0.761457 1.712306 0.269272
H 1.010090 0.770018 1.857344
H 2.814489 -0.491938 -1.635766
H 3.921069 0.725069 -1.049937
H 1.062532 1.292627 -2.087522
H 2.580666 1.604420 -2.956656
H 2.192054 2.532535 -1.492816
H 2.865012 -1.756986 0.567187
H 2.610582 -0.878034 2.081979
H 4.136157 1.335341 1.861285
H 5.835492 0.861484 1.925193
H 4.679212 0.210150 3.125531
H 3.882903 -3.069122 2.340381
H 4.939827 -2.097175 3.397161
H 5.580053 -3.536792 2.574007
H 4.172763 -2.992449 -0.213515
H 5.846779 -3.517392 0.010378
H 5.499443 -2.025610 -0.905780
H 7.016274 -0.966311 2.384420
H 7.109140 -0.728280 0.616419
H 7.426119 -2.329589 1.329942