33
H20 C10 N1 O1 F1
C 0.832770 0.157430 -0.698220
C 2.262463 0.277153 -0.200852
C 2.713939 -0.967621 0.555780
O 3.068712 0.536594 -1.333762
C 4.384641 0.936845 -1.069786
C 4.984860 1.463265 -2.373537
N 6.326504 2.003756 -2.294782
C 7.381845 1.091327 -1.873102
C 7.643231 1.405013 -0.396202
C 7.414828 2.923084 -0.320683
C 6.834153 3.347870 1.007802
F 6.632966 4.723472 1.028173
C 6.488954 3.238474 -1.528847
H 0.138301 0.014803 0.142900
H 0.733557 -0.702389 -1.379990
H 0.538205 1.066309 -1.243684
H 2.328567 1.147038 0.485851
H 2.710067 -1.843141 -0.113635
H 2.034161 -1.170608 1.397191
H 3.727086 -0.852134 0.969282
H 4.992635 0.094673 -0.687310
H 4.403866 1.730011 -0.294294
H 4.311808 2.244227 -2.763784
H 4.970642 0.645831 -3.113579
H 8.302180 1.281947 -2.456478
H 7.094292 0.045052 -2.054243
H 8.648402 1.109712 -0.061901
H 6.911649 0.876913 0.237729
H 8.375646 3.446284 -0.451860
H 5.857495 2.864000 1.181010
H 7.508698 3.092807 1.841191
H 6.942333 4.030922 -2.149443
H 5.510073 3.622409 -1.198422