20
H12 C6 O2
C 3.457453 0.664509 4.161975
C 4.759656 0.075417 3.613852
C 5.953260 0.943912 4.017446
O 4.934757 -1.241166 4.124429
C 4.697300 -0.119526 2.092667
C 4.517220 1.142419 1.290774
C 5.654228 1.879250 0.736014
O 4.845227 1.059605 -0.087032
H 3.492919 0.699317 5.263296
H 2.598513 0.043029 3.865606
H 3.286781 1.691242 3.804728
H 6.023927 1.003787 5.115970
H 5.861344 1.970732 3.632576
H 6.890290 0.509677 3.636504
H 4.975920 -1.175951 5.086118
H 3.864012 -0.807306 1.872264
H 5.624300 -0.618038 1.767560
H 3.597950 1.709868 1.489507
H 6.671450 1.509949 0.918568
H 5.574182 2.959383 0.560866