14
H8 C4 O2
C 0.897746 -0.077367 -0.024723
C 2.397735 -0.128538 -0.083629
O 3.053401 0.645323 -1.083285
C 3.173881 -0.764105 -1.155063
C 2.561414 -1.451913 -2.353255
O 2.373718 -2.825962 -2.125558
H 0.570863 0.851456 0.467670
H 0.517076 -0.924311 0.566749
H 0.440186 -0.113635 -1.022444
H 2.888622 -0.072848 0.898453
H 4.172202 -1.147358 -0.891110
H 3.203623 -1.262878 -3.234832
H 1.577833 -1.016586 -2.579076
H 3.242550 -3.239878 -2.061299