30
H18 C10 N1 F1
C 2.683507 0.947144 -1.295420
C 1.763354 0.040700 -0.471826
C 0.941654 0.764598 0.587409
C 0.289319 2.095624 0.336566
C 1.414442 1.986463 1.328419
N 2.454786 -1.107329 0.128648
C 2.817907 -2.160597 -0.797015
C 2.238954 -3.486905 -0.337642
F 2.604600 -4.494190 -1.220153
C 3.388982 -0.781735 1.172804
C 4.479313 -1.705380 1.622850
C 4.836328 -0.409354 0.936082
H 3.214407 0.353204 -2.055246
H 3.439541 1.445596 -0.671535
H 2.112597 1.722573 -1.827813
H 1.028695 -0.399013 -1.167557
H 0.348748 0.060537 1.181098
H -0.725474 2.242639 0.715967
H 0.492958 2.605987 -0.608885
H 1.180529 2.060227 2.393981
H 2.379166 2.418641 1.049153
H 3.909196 -2.269137 -0.939223
H 2.409543 -1.934040 -1.793639
H 1.139021 -3.432100 -0.306363
H 2.608109 -3.756938 0.664493
H 2.907714 -0.229735 1.984790
H 4.659631 -2.629995 1.068012
H 4.651126 -1.794385 2.698950
H 5.212863 -0.486094 -0.088322
H 5.272034 0.404055 1.523237