30
H17 C8 N1 O2 F2
C 1.002407 0.037577 0.024744
C 2.524199 0.094058 0.035735
C 3.117594 0.120310 1.441739
O 2.707379 -0.999115 2.210748
C 4.638977 0.222044 1.429560
N 5.150858 0.305921 2.781185
C 6.591483 0.218468 2.875769
C 7.037416 0.405561 4.312997
O 8.437100 0.319348 4.368046
C 8.954514 0.462147 5.651479
C 10.457748 0.372367 5.565095
F 10.957878 1.432369 4.878769
F 10.977020 0.427105 6.819196
H 0.611902 -0.009857 -1.003105
H 0.569100 0.927570 0.509180
H 0.639223 -0.847080 0.568680
H 2.874815 0.987020 -0.507484
H 2.937414 -0.778126 -0.503405
H 2.723922 0.996783 1.984618
H 2.975160 -1.793763 1.730084
H 4.940889 1.119736 0.863248
H 5.044691 -0.653515 0.871120
H 4.724515 -0.447793 3.320006
H 7.042718 1.015769 2.261072
H 7.001254 -0.742362 2.495756
H 6.576248 -0.371346 4.956806
H 6.687035 1.387346 4.687022
H 8.601565 -0.335917 6.333020
H 8.687952 1.437509 6.105080
H 10.806004 -0.550196 5.074853