25
H16 C7 O2
C 1.123863 -0.003370 -0.336968
C 2.587529 0.197717 0.033543
C 2.904378 0.371678 1.528165
C 2.301862 1.667447 2.074359
C 2.424199 -0.832902 2.341729
O 4.333978 0.426943 1.543482
C 4.982812 0.802084 2.724143
C 6.448251 0.416481 2.591446
O 7.189766 0.760821 3.732695
H 1.017616 -0.086545 -1.429430
H 0.493557 0.838985 -0.011839
H 0.708881 -0.923988 0.101390
H 2.987372 1.082759 -0.488838
H 3.180475 -0.662068 -0.320034
H 1.208258 1.664614 1.959964
H 2.703253 2.539314 1.534218
H 2.515776 1.793036 3.146548
H 1.326478 -0.901307 2.337350
H 2.739263 -0.756187 3.393271
H 2.833629 -1.766299 1.925036
H 4.565308 0.301215 3.617366
H 4.911832 1.894747 2.900161
H 6.859039 0.873754 1.670742
H 6.521646 -0.675580 2.470405
H 7.210828 1.723163 3.793909