28
H18 C8 O2
C 0.934637 0.135075 0.342512
C 2.446746 -0.006167 0.214690
C 2.938580 -0.878112 -0.948878
C 2.454970 -0.402595 -2.333138
C 1.176870 -1.071617 -2.830184
C 4.460579 -0.951266 -0.903583
O 4.921062 -1.897359 -1.831008
C 6.312403 -1.956870 -1.941276
C 6.675347 -3.026442 -2.958564
O 8.064567 -3.171381 -3.095492
H 0.673784 0.708187 1.245856
H 0.443618 -0.848673 0.418955
H 0.495828 0.664611 -0.517094
H 2.845633 -0.423750 1.155137
H 2.895957 0.998754 0.114498
H 2.571793 -1.909072 -0.788371
H 3.251558 -0.605294 -3.066150
H 2.325390 0.694498 -2.314389
H 1.321222 -2.159831 -2.930216
H 0.884887 -0.684050 -3.819131
H 0.328025 -0.913958 -2.148478
H 4.799317 -1.223057 0.116693
H 4.890484 0.048086 -1.128739
H 6.785010 -2.201133 -0.968307
H 6.725957 -0.977994 -2.265188
H 6.180878 -2.792488 -3.920788
H 6.277198 -3.994708 -2.617064
H 8.410668 -2.361785 -3.489234