27
H17 C7 S1 N1 O1
C 1.015353 2.170463 1.286757
S 2.592608 1.998102 2.153333
C 3.373358 3.569547 1.671038
C 4.760599 3.682354 2.295706
N 5.427294 4.920736 1.932137
C 4.991292 6.053320 2.721917
C 6.872954 4.815862 1.807083
C 7.354219 4.669461 0.358086
C 6.835383 3.421117 -0.339337
O 8.766286 4.735629 0.314244
H 0.424440 1.267306 1.496332
H 1.163334 2.250390 0.199225
H 0.456466 3.048112 1.645207
H 2.724652 4.398614 1.995206
H 3.459304 3.616590 0.573544
H 5.366727 2.835602 1.942120
H 4.681741 3.572940 3.400093
H 3.895003 6.144835 2.695423
H 5.404207 6.987152 2.311791
H 5.294828 5.982680 3.789758
H 7.275545 3.971884 2.405733
H 7.345695 5.725428 2.208536
H 6.997971 5.555323 -0.194341
H 7.158194 2.511611 0.196110
H 7.225909 3.372269 -1.367027
H 5.736412 3.419368 -0.388191
H 9.106624 3.940945 0.744146