30
H19 C9 N1 O1
C 0.862609 0.457867 0.103811
C 2.358839 0.218104 -0.007417
N 3.098270 1.417958 0.350574
C 4.537832 1.250326 0.492830
C 5.163498 0.742131 -0.802807
C 5.206575 2.567135 0.944551
O 6.549608 2.209475 1.173615
C 7.497436 3.222865 1.341806
C 4.887282 3.785421 0.032231
C 3.903512 4.303565 1.103198
C 4.486175 3.291575 2.112481
H 0.297200 -0.434035 -0.204923
H 0.556641 1.301094 -0.535112
H 0.574480 0.696314 1.141027
H 2.600975 -0.065535 -1.044308
H 2.642631 -0.652072 0.624979
H 2.719991 1.753970 1.234316
H 4.779794 0.516280 1.294820
H 4.859624 1.368453 -1.657050
H 4.862067 -0.293244 -1.018345
H 6.257799 0.762722 -0.720422
H 8.412077 2.749944 1.728217
H 7.184652 3.994267 2.068905
H 7.752971 3.728066 0.392769
H 4.468020 3.551101 -0.956689
H 5.749082 4.453305 -0.100772
H 2.856480 4.094552 0.845004
H 3.997624 5.364493 1.376326
H 3.787262 2.695472 2.720894
H 5.210413 3.757395 2.795941