34
H21 C11 N1 O1
C 1.035381 0.244289 -0.209009
C 2.335287 -0.022251 -0.087290
C 3.217388 -0.481334 -1.206762
O 4.378375 0.306099 -1.233906
C 5.306998 -0.099858 -2.200856
C 6.525090 0.801524 -2.098435
N 7.486814 0.555870 -3.146586
C 8.549862 1.545745 -3.216554
C 9.560376 0.949833 -4.210323
C 9.382473 1.492507 -5.624923
C 9.299333 -0.582957 -4.126473
C 10.535855 -1.412621 -3.812159
C 8.185402 -0.716483 -3.080136
H 0.430691 0.542484 0.652576
H 0.523173 0.167801 -1.174708
H 2.826422 0.066221 0.889671
H 2.677028 -0.430269 -2.173348
H 3.485910 -1.547548 -1.046568
H 4.881900 -0.023912 -3.222249
H 5.584545 -1.161440 -2.043435
H 6.976064 0.687891 -1.085639
H 6.178709 1.844605 -2.178039
H 9.026267 1.687206 -2.220107
H 8.156917 2.525439 -3.533843
H 10.585055 1.171358 -3.871676
H 8.342134 1.351217 -5.961548
H 10.042378 0.971513 -6.337345
H 9.613647 2.568384 -5.677139
H 8.894494 -0.914309 -5.097276
H 10.986752 -1.102796 -2.854839
H 11.300326 -1.298509 -4.597115
H 10.291772 -2.484738 -3.737392
H 8.627033 -0.877738 -2.068051
H 7.515199 -1.565352 -3.284837