30
H19 C8 S1 N1 O1
C 3.048344 -1.346976 -0.413794
S 4.761507 -0.941604 -0.002721
C 5.352346 -0.414460 -1.641274
C 6.824036 -0.026143 -1.585103
C 7.340822 0.428210 -2.948450
N 8.734862 0.838681 -2.928584
C 9.657249 -0.275668 -2.880211
C 9.079483 1.837142 -3.929159
C 9.187777 3.257541 -3.360901
C 7.894481 3.769460 -2.745243
O 9.670722 4.138150 -4.356782
H 2.559644 -1.689858 0.509500
H 2.996174 -2.154566 -1.159800
H 2.507728 -0.465689 -0.791173
H 4.741641 0.437971 -1.982655
H 5.199088 -1.240231 -2.355803
H 7.411148 -0.884933 -1.220466
H 6.972191 0.792612 -0.861211
H 6.731362 1.283491 -3.276178
H 7.169253 -0.379321 -3.696590
H 9.427296 -0.934121 -2.029248
H 10.686668 0.086614 -2.739321
H 9.636318 -0.900204 -3.801143
H 8.351642 1.842143 -4.767115
H 10.055868 1.597441 -4.378695
H 9.966008 3.237854 -2.579316
H 7.086748 3.793903 -3.496985
H 8.035957 4.790303 -2.359264
H 7.570788 3.127283 -1.912931
H 8.985247 4.214565 -5.032345