22
H13 C6 N1 O2
O 0.596909 -0.105127 0.635758
C 1.989675 -0.097920 0.829491
C 2.599388 0.896408 -0.146461
N 4.048039 0.936658 -0.025243
C 4.661735 2.242901 -0.229975
C 4.795952 2.601959 -1.705579
O 5.510264 1.603515 -2.400831
C 4.891930 0.341033 -2.282563
C 4.747702 -0.069360 -0.819523
H 0.210866 -0.740357 1.247850
H 2.426668 -1.101636 0.660369
H 2.264737 0.204344 1.858609
H 2.191801 1.893360 0.082812
H 2.247655 0.644909 -1.167404
H 5.673142 2.224810 0.214408
H 4.082602 3.014234 0.300145
H 5.349604 3.544987 -1.828924
H 3.791016 2.737623 -2.156680
H 5.518699 -0.381961 -2.825836
H 3.897647 0.359276 -2.774143
H 5.756301 -0.214267 -0.393747
H 4.223480 -1.034590 -0.751003