28
H16 C8 N1 O2 F1
C 1.682472 0.856973 0.530154
O 2.519018 -0.201393 0.167872
C 3.193845 -0.771678 1.250896
C 4.071582 -1.900273 0.729326
N 4.793398 -2.570524 1.794836
C 4.087691 -3.565978 2.583102
C 6.047330 -2.133597 2.108315
O 6.594719 -1.231509 1.487870
C 6.736681 -2.835124 3.267000
C 8.113844 -2.262337 3.562456
C 8.777685 -2.984510 4.712415
F 10.030178 -2.436937 4.957249
H 1.201372 1.240207 -0.381073
H 2.244129 1.685585 1.004430
H 0.890737 0.536710 1.235815
H 2.475883 -1.162649 2.001726
H 3.826681 -0.021066 1.766749
H 4.799250 -1.489856 0.018037
H 3.446840 -2.635627 0.199524
H 3.156438 -3.828840 2.065513
H 3.824855 -3.198487 3.588771
H 4.675956 -4.488604 2.694176
H 6.809794 -3.911232 3.033566
H 6.091989 -2.768137 4.159596
H 8.032396 -1.191948 3.806995
H 8.752966 -2.338958 2.669596
H 8.915452 -4.055107 4.487636
H 8.184390 -2.896713 5.637613