35
H23 C10 N1 O1
C 1.186259 -0.454064 0.698350
C 2.683913 -0.404731 0.395380
C 3.498360 -0.743074 1.644589
C 3.017059 -1.315216 -0.794195
C 4.466546 -1.249644 -1.271937
C 4.805382 -2.117769 -2.495820
C 4.330588 -1.531321 -3.830879
O 2.948710 -1.288165 -3.929669
N 6.238536 -2.364516 -2.631813
C 6.805306 -3.399640 -1.769636
C 6.519498 -4.787587 -2.338155
C 8.304313 -3.163900 -1.629320
H 0.916701 0.235111 1.514612
H 0.881264 -1.469352 1.004967
H 0.588690 -0.179664 -0.185683
H 2.933662 0.631400 0.099700
H 3.327272 -1.789436 1.951612
H 3.212549 -0.096940 2.490007
H 4.579604 -0.613524 1.484778
H 2.356553 -1.054662 -1.634153
H 2.775252 -2.360213 -0.521154
H 5.130570 -1.567649 -0.451166
H 4.738665 -0.201574 -1.498904
H 4.308759 -3.097605 -2.372365
H 4.681479 -2.205861 -4.634706
H 4.830495 -0.560039 -3.987940
H 2.492346 -2.132340 -3.830611
H 6.731948 -1.487058 -2.473358
H 6.363190 -3.354414 -0.750849
H 6.987718 -4.897445 -3.330020
H 5.439248 -4.967173 -2.451908
H 6.916778 -5.571995 -1.675016
H 8.789635 -3.176072 -2.619256
H 8.770115 -3.942951 -1.007543
H 8.509406 -2.187849 -1.160530