27
H17 C8 N1 O1
C 1.076121 0.122315 0.017848
C 2.575885 -0.068192 0.054595
O 3.118556 0.282878 -1.191134
C 4.508012 0.144732 -1.259848
C 4.977193 0.557249 -2.642236
N 6.418224 0.442471 -2.748918
C 6.946057 0.930820 -4.002274
C 6.996141 2.460820 -4.205679
C 8.391557 2.285007 -4.843028
C 8.475941 0.896183 -4.174299
H 0.632754 -0.148072 0.987699
H 0.622345 -0.511292 -0.759581
H 0.822501 1.171316 -0.198967
H 2.823656 -1.121872 0.297860
H 3.022953 0.554180 0.856687
H 4.809173 -0.905303 -1.057645
H 5.012304 0.773256 -0.497897
H 4.690892 1.609517 -2.808138
H 4.430180 -0.042013 -3.401192
H 6.687074 -0.535589 -2.639633
H 6.455886 0.459227 -4.881027
H 7.058129 2.965592 -3.228656
H 6.204301 2.931512 -4.807109
H 9.165310 3.021901 -4.583002
H 8.334984 2.209283 -5.939513
H 8.964419 0.952031 -3.188883
H 8.912001 0.064091 -4.747060