30
H17 C9 N1 O1 F2
C 1.556622 -0.704903 1.055620
O 2.540835 -0.219755 0.192649
C 3.110224 -1.211058 -0.613484
C 4.146409 -0.570927 -1.522325
N 4.802868 -1.560756 -2.358357
C 5.013253 -1.166913 -3.732090
C 3.843219 -1.561571 -4.603541
F 2.707251 -0.909969 -4.220597
F 4.081942 -1.195809 -5.892711
C 5.939143 -2.218534 -1.728821
C 6.172477 -3.621891 -2.239259
C 6.720762 -4.670003 -1.311880
C 5.283605 -4.731815 -1.757046
H 1.167958 0.139775 1.642484
H 1.956778 -1.463294 1.757435
H 0.712858 -1.166209 0.505397
H 2.342287 -1.709151 -1.239899
H 3.577339 -2.001378 0.010194
H 4.871698 -0.002270 -0.904823
H 3.631285 0.161383 -2.159158
H 5.893077 -1.679597 -4.147479
H 5.187671 -0.079857 -3.856111
H 3.637122 -2.642940 -4.573991
H 5.738992 -2.275857 -0.647835
H 6.867713 -1.618266 -1.842226
H 6.503201 -3.689231 -3.281348
H 6.922415 -4.376797 -0.276970
H 7.421278 -5.404654 -1.717761
H 4.510699 -4.471382 -1.027008
H 4.993350 -5.512211 -2.465519