37
H24 C11 N2
C 1.079801 1.314575 1.673240
C 1.820842 0.650737 0.518804
C 2.798644 1.604345 -0.162216
N 3.625759 0.985771 -1.185861
C 2.867563 0.602186 -2.357613
C 4.778543 1.796251 -1.543945
C 5.861888 1.899576 -0.459253
C 7.103773 2.626238 -0.996161
C 7.934626 1.757699 -1.936971
N 8.295060 0.491860 -1.319655
C 9.162204 -0.291914 -2.167080
C 7.121816 -0.257804 -0.898277
C 6.283953 0.535179 0.097185
H 0.374000 0.616934 2.149323
H 0.502189 2.187834 1.328516
H 1.778686 1.665149 2.450159
H 1.086477 0.269129 -0.208965
H 2.383372 -0.225390 0.883389
H 3.461979 2.014275 0.614648
H 2.236767 2.474493 -0.577645
H 2.056098 -0.091021 -2.093556
H 3.520438 0.084111 -3.076649
H 2.409334 1.472189 -2.880913
H 4.473837 2.828928 -1.833258
H 5.218137 1.350323 -2.449393
H 5.460838 2.500661 0.372787
H 7.739257 2.919221 -0.144121
H 6.815318 3.554405 -1.516390
H 8.859873 2.292378 -2.206667
H 7.384457 1.590596 -2.892439
H 10.070608 0.278644 -2.416902
H 8.678708 -0.590714 -3.125309
H 9.471909 -1.213318 -1.649239
H 7.457485 -1.198890 -0.433428
H 6.495736 -0.548421 -1.774733
H 6.882749 0.690635 1.010344
H 5.395623 -0.049990 0.376574