33
H21 C10 N1 O1
C 5.861623 -2.869165 -2.627176
C 5.954189 -1.500813 -1.963428
C 4.602713 -0.810225 -1.807659
C 4.703068 0.615490 -1.256665
C 3.333744 1.203220 -0.878374
C 2.650158 0.539476 0.311633
N 5.416004 1.457344 -2.215564
C 6.123178 2.602866 -1.667029
C 6.593024 3.521695 -2.796064
C 7.834473 2.792661 -3.302953
O 8.381479 2.128490 -2.176069
C 7.477106 2.188006 -1.087471
H 6.851563 -3.343653 -2.715192
H 5.438729 -2.791416 -3.642353
H 5.214915 -3.552194 -2.051874
H 6.619307 -0.842407 -2.545034
H 6.420263 -1.604107 -0.967379
H 3.957508 -1.418555 -1.152077
H 4.091741 -0.765476 -2.787822
H 5.317374 0.576159 -0.338806
H 3.471468 2.275052 -0.656826
H 2.676733 1.154523 -1.765970
H 3.295702 0.567022 1.204882
H 2.401409 -0.514572 0.113680
H 1.710822 1.054868 0.565139
H 4.763957 1.767431 -2.934337
H 5.530996 3.157519 -0.912088
H 6.862424 4.505450 -2.382456
H 5.830596 3.675054 -3.573962
H 8.586022 3.479639 -3.725982
H 7.572599 2.054975 -4.082943
H 7.818772 2.933014 -0.343184
H 7.441851 1.205458 -0.590885