31
H20 C9 N1 F1
C 2.470564 0.244964 -0.030504
C 3.922399 0.572334 -0.363681
C 4.678015 -0.526599 -1.128939
C 4.850354 -1.781184 -0.272324
C 6.025107 0.008276 -1.667470
C 6.904522 -1.076135 -2.290816
N 5.813707 1.089997 -2.636748
C 6.262684 2.424564 -2.276372
C 5.518784 3.461437 -3.109718
C 7.755396 2.588255 -2.503248
F 8.488734 1.739792 -1.680861
H 1.974842 1.103826 0.448221
H 2.379608 -0.608114 0.659400
H 1.900731 -0.001579 -0.941629
H 4.476555 0.798637 0.565256
H 3.937702 1.499152 -0.959020
H 4.069389 -0.801884 -2.013859
H 5.535767 -1.588990 0.570920
H 5.253937 -2.624995 -0.849925
H 3.889703 -2.112617 0.148713
H 6.575000 0.424918 -0.804460
H 6.372928 -1.588162 -3.110685
H 7.224003 -1.833630 -1.559583
H 7.809190 -0.612446 -2.709363
H 4.838225 1.122439 -2.919235
H 6.074118 2.641478 -1.202706
H 5.686773 3.289318 -4.185029
H 5.846594 4.482275 -2.864875
H 4.436109 3.398879 -2.920571
H 8.072017 3.619219 -2.277984
H 8.008933 2.344657 -3.548026