39
H25 C12 N1 O1
C 10.179301 5.560366 -2.838309
C 9.306798 5.055437 -1.963517
C 7.900262 5.538448 -1.769115
C 7.612428 6.062342 -0.348504
C 8.447420 7.295757 0.008883
C 8.266850 8.486198 -0.923654
N 7.860021 5.034156 0.654857
C 6.918264 3.931927 0.661189
C 7.207416 2.843126 1.715443
C 6.043894 1.852738 1.700024
C 7.415712 3.421242 3.127562
C 6.253401 4.239699 3.680690
O 8.325819 2.048675 1.320148
C 9.626875 2.540420 1.503442
H 11.192992 5.158497 -2.932339
H 9.911492 6.392456 -3.499844
H 9.619376 4.223209 -1.320818
H 7.204729 4.710399 -1.986000
H 7.665284 6.329695 -2.497587
H 6.541734 6.369586 -0.341715
H 8.175506 7.596529 1.035840
H 9.511119 7.003785 0.045148
H 7.202749 8.751502 -1.035461
H 8.669976 8.287489 -1.928485
H 8.790733 9.370973 -0.530985
H 7.866314 5.478328 1.570520
H 6.949413 3.422937 -0.314525
H 5.872007 4.284641 0.794248
H 6.221995 1.050915 2.432127
H 5.958909 1.392609 0.703796
H 5.086173 2.337310 1.935534
H 8.321215 4.048802 3.134541
H 7.630483 2.574584 3.801204
H 6.031980 5.115771 3.050384
H 6.496207 4.614835 4.686501
H 5.330306 3.646689 3.765532
H 10.295845 1.899897 0.908312
H 9.960987 2.479073 2.556465
H 9.738255 3.579624 1.157505