32
H20 C9 N1 O1 F1
C 0.952861 -0.225082 0.272185
N 2.338545 0.085966 -0.012264
C 2.572231 0.287206 -1.433967
C 2.626897 -1.015829 -2.225296
C 2.933536 -0.772701 -3.685412
F 2.943513 -1.977440 -4.376632
C 2.822555 1.198505 0.796248
C 4.334082 1.155133 1.004937
C 4.957178 2.346274 1.755624
C 4.851174 3.641413 0.946169
C 4.342102 2.525393 3.139168
O 6.331862 2.052337 1.988051
H 0.621105 -1.094694 -0.313928
H 0.263448 0.617734 0.040257
H 0.829844 -0.479668 1.335946
H 3.534791 0.806262 -1.560994
H 1.800900 0.960957 -1.872251
H 1.668121 -1.554364 -2.158650
H 3.402051 -1.667655 -1.791222
H 3.921369 -0.301008 -3.816266
H 2.173603 -0.123852 -4.151163
H 2.329614 1.134897 1.778125
H 2.513215 2.173275 0.359422
H 4.843831 1.076725 0.028488
H 4.583457 0.237617 1.562456
H 3.806332 3.953034 0.799020
H 5.310046 3.515283 -0.048593
H 5.381366 4.452847 1.467875
H 3.290284 2.839666 3.074488
H 4.895773 3.296026 3.696938
H 4.391851 1.585075 3.709964
H 6.749992 1.926161 1.127709