35
H23 C10 N1 O1
C 0.981884 -0.357638 -0.644781
C 2.386160 -0.162647 -0.084281
C 3.197509 -1.454189 -0.075344
C 4.655843 -1.332227 0.382246
C 4.788137 -0.716144 1.790742
C 5.090576 0.776633 1.797272
O 5.253577 1.294167 3.096604
N 5.277624 -2.657924 0.318517
C 6.619986 -2.715553 -0.254570
C 7.638831 -2.003325 0.629529
C 6.979412 -4.187227 -0.484696
C 8.312774 -4.423684 -1.182687
H 0.410645 0.583520 -0.635918
H 0.416951 -1.096995 -0.053824
H 1.013540 -0.720010 -1.685226
H 2.312626 0.241253 0.939226
H 2.918774 0.599574 -0.679398
H 3.195367 -1.880817 -1.094491
H 2.695561 -2.196076 0.573533
H 5.165106 -0.651974 -0.334784
H 5.597110 -1.227001 2.332020
H 3.864795 -0.905449 2.369169
H 4.314939 1.334503 1.239171
H 6.041997 0.956500 1.269101
H 4.423406 1.160648 3.568761
H 4.682889 -3.269064 -0.236633
H 6.639889 -2.208920 -1.247583
H 7.698210 -2.483131 1.620579
H 7.377395 -0.944788 0.775834
H 8.638933 -2.026455 0.172020
H 6.174149 -4.641156 -1.088818
H 6.962418 -4.705263 0.490152
H 8.369177 -3.872122 -2.135557
H 8.450286 -5.492112 -1.409095
H 9.166584 -4.108996 -0.563147