28
H18 C8 O2
C 0.600744 -0.343180 -0.362655
C 2.100895 -0.183859 -0.148519
C 2.902129 -1.384564 -0.637681
C 4.397303 -1.237318 -0.419257
O 4.671564 -1.119137 0.951954
C 5.411090 0.014474 1.352872
C 5.700996 -0.094351 2.832132
O 5.015425 -2.363667 -0.951377
C 6.424448 -2.337988 -0.926958
C 6.950600 -3.561101 -1.643650
H 0.046748 0.535842 0.001464
H 0.214480 -1.226648 0.171334
H 0.360507 -0.470966 -1.430760
H 2.309859 -0.030567 0.923087
H 2.453502 0.725619 -0.665981
H 2.728673 -1.549158 -1.713614
H 2.577708 -2.300082 -0.114014
H 4.772468 -0.327419 -0.937823
H 4.839558 0.939024 1.144515
H 6.357025 0.082778 0.782633
H 4.765468 -0.146152 3.409906
H 6.271095 0.782343 3.173928
H 6.291184 -0.998220 3.048024
H 6.788556 -2.320857 0.116519
H 6.793492 -1.413835 -1.415656
H 6.596096 -4.480456 -1.152957
H 8.050714 -3.565707 -1.632274
H 6.613692 -3.576418 -2.691443