29
H18 C8 N1 O1 F1
C 1.080833 -0.047592 0.078403
C 2.601798 0.077537 0.006658
C 3.022757 0.962312 -1.167229
C 3.152677 0.585369 1.341554
N 4.603202 0.619366 1.379190
C 5.145447 1.000432 2.666954
C 6.661039 0.944940 2.640567
O 7.150360 1.297557 3.905434
C 8.543289 1.284310 3.995177
C 8.914772 1.672965 5.410228
F 10.292458 1.669016 5.531531
H 0.671603 -0.462459 -0.856043
H 0.610543 0.937354 0.239181
H 0.768401 -0.706697 0.904061
H 3.027234 -0.929151 -0.154305
H 2.681214 2.001292 -1.019295
H 2.585975 0.597943 -2.110474
H 4.115676 0.979091 -1.302571
H 2.808804 -0.088783 2.145179
H 2.699290 1.579590 1.560887
H 4.940986 1.276974 0.677780
H 4.781730 0.294814 3.433109
H 4.830420 2.013953 2.996656
H 7.052809 1.636914 1.866332
H 6.988993 -0.075030 2.357905
H 9.002561 1.998537 3.282647
H 8.954967 0.280790 3.767187
H 8.493452 0.956153 6.132404
H 8.541499 2.681844 5.646502