32
H21 C9 N1 O1
C 0.998484 -0.221379 -0.216077
C 2.516507 -0.088529 -0.197335
C 2.995607 1.358822 -0.114289
C 4.514223 1.497307 -0.089184
C 4.988664 2.942244 -0.014063
N 6.437944 3.013756 0.060114
C 7.004551 4.352220 -0.032934
C 6.594147 5.224848 1.147466
C 8.520950 4.209057 -0.103381
O 9.104061 5.461741 -0.315908
C 10.499917 5.428432 -0.335980
H 0.685569 -1.275376 -0.276594
H 0.562470 0.306224 -1.080227
H 0.549393 0.208058 0.694483
H 2.939576 -0.558214 -1.102720
H 2.926369 -0.654299 0.657715
H 2.570931 1.830607 0.790274
H 2.589508 1.925450 -0.971741
H 4.940198 1.023486 -0.992632
H 4.927823 0.946295 0.773242
H 4.554480 3.412323 0.884353
H 4.583761 3.507721 -0.883308
H 6.820126 2.451460 -0.700018
H 6.684310 4.867130 -0.966559
H 6.816264 4.708783 2.096240
H 5.521247 5.466597 1.128936
H 7.152928 6.170917 1.122854
H 8.789253 3.512694 -0.925935
H 8.889857 3.752004 0.838704
H 10.863773 6.451494 -0.508087
H 10.887847 4.778421 -1.144883
H 10.919432 5.063486 0.622059