30
H17 C9 N1 O1 F2
C -1.382210 0.149116 2.054049
C -1.285010 0.160802 0.526095
C -0.774889 -1.171413 -0.045429
C 0.737039 -1.329196 0.129539
N 1.504446 -0.223925 -0.445696
C 1.695788 -0.319355 -1.876915
C 3.025609 -0.957936 -2.208392
F 3.063583 -2.254252 -1.785348
F 3.199830 -0.988568 -3.558875
C 1.094137 1.088217 0.056958
C 1.707585 1.306246 1.451646
O 1.286898 2.497446 2.066975
C -0.426497 1.305524 -0.036074
H -2.126948 -0.590518 2.388614
H -1.701076 1.132823 2.436297
H -0.431534 -0.109872 2.543808
H -2.310410 0.316671 0.150531
H -1.017604 -1.216602 -1.121325
H -1.292886 -2.020685 0.430034
H 1.080734 -2.265080 -0.331487
H 0.981460 -1.413934 1.201036
H 1.708210 0.681576 -2.333048
H 0.905874 -0.896453 -2.394555
H 3.878191 -0.429621 -1.753779
H 1.562633 1.845896 -0.590151
H 1.523154 0.434106 2.102677
H 2.799650 1.372530 1.326007
H 0.393916 2.361924 2.403468
H -0.668209 1.418410 -1.106864
H -0.693783 2.264332 0.437394