15
H9 C4 N1 O1
C 1.003001 -0.029540 0.170208
N 2.440727 -0.032668 0.202347
C 3.139353 1.027415 0.934909
C 4.197015 -0.009731 1.366635
O 5.369616 -0.030923 0.606629
C 3.133852 -1.060574 0.984463
H 0.637529 0.848257 -0.385854
H 0.548763 -0.004215 1.186203
H 0.632602 -0.930595 -0.343780
H 2.562066 1.417051 1.798253
H 3.496770 1.877989 0.328888
H 4.498544 0.014580 2.422177
H 5.116621 -0.052718 -0.325315
H 2.554628 -1.405843 1.865192
H 3.486802 -1.940736 0.419455