12
H6 C4 S1 O1
S 1.224474 -0.144858 0.424799
C 2.809066 0.009888 0.033743
C 3.658373 1.255298 0.084804
C 4.856532 0.890020 -0.788392
C 4.914727 -0.619490 -0.608320
O 3.542386 -1.010574 -0.369879
H 3.951337 1.408903 1.138086
H 3.095531 2.140212 -0.236183
H 5.788939 1.380510 -0.482056
H 4.657049 1.142999 -1.840297
H 5.503823 -0.919262 0.272416
H 5.267533 -1.176147 -1.484902