36
H23 C11 N1 O1
C 3.556480 0.173048 -1.102081
C 2.669121 -0.631458 -0.164988
O 1.304036 -0.504560 -0.520240
C 2.857885 -0.253971 1.321010
C 1.994484 -1.138984 2.226173
N 4.266216 -0.176066 1.706768
C 4.494772 0.639931 2.877417
C 4.959518 -1.453064 1.732455
C 6.495410 -1.396003 1.651635
C 7.058673 -0.374769 0.646316
C 8.466605 -0.073624 1.159600
C 8.265506 0.001396 2.675893
C 7.264215 -1.126453 2.981196
H 4.619761 -0.048369 -0.941851
H 3.409730 1.255267 -0.944328
H 3.301551 -0.062202 -2.146499
H 2.889631 -1.704010 -0.298049
H 1.074739 0.431277 -0.455175
H 2.475656 0.780777 1.401212
H 2.289247 -2.197946 2.151947
H 0.939030 -1.065750 1.930405
H 2.077758 -0.833443 3.280573
H 3.896389 1.561300 2.812314
H 5.549834 0.944653 2.941732
H 4.236133 0.135346 3.834354
H 4.607766 -2.036665 0.868667
H 4.689435 -2.049311 2.633009
H 6.794576 -2.400624 1.311083
H 6.447100 0.541577 0.675335
H 7.038431 -0.747664 -0.389771
H 8.899871 0.843989 0.732232
H 9.146805 -0.907085 0.911106
H 7.827983 0.980899 2.933875
H 9.203171 -0.091831 3.244704
H 6.592656 -0.871934 3.814305
H 7.801626 -2.037644 3.287206