27
H17 C8 N1 O1
C 1.142911 0.540853 0.359761
C 2.322558 0.100725 -0.092123
C 2.951006 0.543828 -1.390213
C 2.178467 1.567990 -2.206483
C 3.117707 -0.926407 0.685907
N 4.484239 -0.504306 0.953903
C 4.526393 0.633940 1.849468
C 5.333516 -1.596928 1.388250
C 6.821026 -1.337396 1.162960
O 7.598474 -2.464933 1.483188
H 0.530164 1.253513 -0.199063
H 0.742530 0.191397 1.316919
H 3.134770 -0.360826 -1.998212
H 3.958195 0.926961 -1.154699
H 1.188722 1.188920 -2.506838
H 2.729679 1.821910 -3.124489
H 2.023788 2.501658 -1.642669
H 3.164773 -1.848403 0.081351
H 2.574420 -1.182380 1.622456
H 3.933480 1.465613 1.440340
H 5.555923 0.996562 1.976919
H 4.120132 0.395704 2.858117
H 5.072896 -2.497605 0.811178
H 5.166935 -1.848842 2.462066
H 7.157440 -0.447574 1.727023
H 6.983488 -1.121764 0.095166
H 7.528517 -2.610711 2.433984