27
H17 C8 N1 O1
C 0.872612 -0.164120 -0.293404
C 1.993246 0.341686 0.222556
C 2.843581 1.397391 -0.425680
N 4.225840 0.966127 -0.575900
C 4.347753 -0.183326 -1.467187
C 4.783422 -1.451349 -0.738357
O 4.936616 -2.545665 -1.607918
C 5.212597 2.021530 -0.846662
C 5.004609 3.262199 0.019459
C 6.628754 1.489671 -0.621788
H 0.281376 -0.911997 0.243538
H 0.500845 0.155950 -1.273520
H 2.347997 -0.005061 1.201529
H 2.814936 2.275888 0.234045
H 2.385008 1.705517 -1.391740
H 5.063732 0.017213 -2.282682
H 3.381024 -0.384907 -1.964516
H 4.063652 -1.668624 0.074474
H 5.760753 -1.281724 -0.260293
H 4.070507 -2.748724 -1.980609
H 5.136190 2.341708 -1.911074
H 4.958764 2.990154 1.086964
H 4.093611 3.820323 -0.238497
H 5.852891 3.948901 -0.118469
H 6.761045 1.197030 0.432746
H 7.369202 2.268137 -0.860600
H 6.858806 0.616884 -1.249435