32
H20 C11 O1
C -2.295196 0.332110 -1.018887
C -2.306977 1.269898 0.197266
C -0.938067 1.795211 0.642985
C 0.136291 0.847826 1.201116
C 0.760536 -0.279686 0.333024
C -0.002829 -1.620681 0.449445
C -1.528397 -1.641615 0.515152
C -2.330446 -1.168523 -0.695639
C 2.218123 -0.528637 0.819093
C 3.059033 0.256425 -0.169582
O 2.409172 0.032890 -1.398049
C 1.024245 0.156735 -1.143135
H -1.423761 0.574128 -1.645332
H -3.168548 0.550988 -1.654116
H -2.828373 0.791487 1.044563
H -2.911796 2.157461 -0.050607
H -1.113785 2.547033 1.431301
H -0.507807 2.364399 -0.198974
H -0.229613 0.388229 2.136252
H 0.963966 1.509461 1.509152
H 0.344100 -2.099412 1.381571
H 0.342189 -2.280392 -0.367101
H -1.857990 -1.086007 1.408505
H -1.817409 -2.687864 0.711671
H -3.381681 -1.447452 -0.507104
H -2.025170 -1.741275 -1.589036
H 2.471306 -1.596574 0.727790
H 2.366015 -0.234292 1.868636
H 4.099714 -0.090247 -0.249539
H 3.074525 1.337608 0.082578
H 0.489872 -0.471078 -1.871904
H 0.717148 1.204445 -1.310026