33
H21 C9 N1 O2
C 0.788231 -0.249579 -0.117277
C 2.304796 -0.100528 -0.101479
C 3.002616 -1.137717 0.773540
C 4.517585 -0.991103 0.791129
N 5.124480 -1.980121 1.668119
C 6.578355 -2.008642 1.699268
C 7.174739 -0.758046 2.332465
O 7.202715 0.301577 1.413508
C 7.707695 1.484031 1.958022
C 7.000697 -3.241430 2.492398
O 8.385241 -3.410736 2.404031
C 8.862517 -4.482135 3.163598
H 0.314394 0.512237 -0.755651
H 0.366992 -0.145322 0.895987
H 0.488595 -1.238987 -0.499931
H 2.572665 0.910215 0.252929
H 2.693017 -0.173816 -1.132454
H 2.739316 -2.151664 0.419124
H 2.628806 -1.066762 1.810024
H 4.787018 0.015299 1.145493
H 4.907395 -1.058466 -0.248775
H 4.795003 -2.901152 1.380091
H 7.023238 -2.096260 0.683755
H 8.202437 -0.988277 2.673347
H 6.574875 -0.489657 3.227131
H 7.715664 2.248808 1.168220
H 8.742226 1.356897 2.333760
H 7.086274 1.853546 2.797436
H 6.473871 -4.130954 2.089367
H 6.679235 -3.129604 3.548960
H 9.952398 -4.535218 3.030814
H 8.422861 -5.446091 2.840935
H 8.645623 -4.353731 4.242016