21
H13 C6 N1 O1
C 0.884544 0.103139 0.035053
C 2.396735 0.004668 -0.139943
C 2.953609 1.033822 -1.124624
N 2.536486 0.684747 -2.471642
C 3.034753 -0.630188 -2.835693
C 2.494492 -1.666653 -1.854643
C 3.064593 -3.049948 -2.089506
O 2.813029 -1.298794 -0.522378
H 0.626050 1.041251 0.549583
H 0.518439 -0.736441 0.645148
H 0.359140 0.094114 -0.930782
H 2.872393 0.172453 0.839086
H 4.059830 1.049129 -1.017719
H 2.579780 2.036172 -0.865152
H 2.864912 1.382664 -3.133927
H 4.146638 -0.683531 -2.818722
H 2.703465 -0.884949 -3.854341
H 1.393908 -1.705123 -1.976040
H 4.160075 -3.041506 -1.976158
H 2.819299 -3.403758 -3.102090
H 2.648461 -3.762730 -1.362369