35
H23 C10 N1 O1
C 1.038444 -0.094259 -0.091768
C 2.540001 -0.306562 0.067514
C 3.082907 -0.068951 1.483519
C 2.479632 -1.033640 2.504798
C 4.613172 -0.138948 1.468146
N 5.208906 0.185365 2.752292
C 6.667329 0.285540 2.750069
C 7.112228 1.623243 2.163829
C 7.166264 0.088567 4.184078
C 8.680533 0.124778 4.354381
C 9.120636 -0.248743 5.763795
O 10.511133 -0.145930 5.952953
H 0.737478 -0.192639 -1.146344
H 0.740847 0.911858 0.246848
H 0.451757 -0.826678 0.483952
H 3.070178 0.369381 -0.625380
H 2.802460 -1.332498 -0.249168
H 2.812123 0.960054 1.784640
H 2.751394 -2.076953 2.268115
H 1.381487 -0.968996 2.526000
H 2.828530 -0.813970 3.525741
H 4.981838 0.579696 0.718530
H 4.923520 -1.145337 1.103525
H 4.944673 -0.534277 3.422060
H 7.113579 -0.523727 2.128751
H 6.773243 2.453295 2.805302
H 6.695361 1.780245 1.157703
H 8.207210 1.677324 2.071857
H 6.789740 -0.885894 4.544985
H 6.697683 0.857553 4.824293
H 9.077227 1.127474 4.127061
H 9.151071 -0.572853 3.637120
H 8.753799 -1.265632 6.010029
H 8.654840 0.437402 6.490270
H 10.934897 -0.760729 5.342641