26
H17 C8 N1
C 1.211497 -0.588074 0.247664
C 2.603709 0.009841 0.096505
C 2.695476 1.321714 -0.691433
C 1.823196 2.449114 -0.107354
C 0.426838 2.551760 -0.713110
N 4.105119 1.715045 -0.721364
C 4.456131 2.684557 -1.717620
C 4.644288 4.124899 -1.317791
C 5.835005 3.271040 -1.656994
H 1.267651 -1.570145 0.742011
H 0.725256 -0.735940 -0.730171
H 0.553523 0.046948 0.860313
H 3.256661 -0.728851 -0.401458
H 3.043867 0.186015 1.093848
H 2.331756 1.121400 -1.725340
H 2.335941 3.407414 -0.272813
H 1.760106 2.325840 0.988341
H 0.484933 2.760954 -1.793904
H -0.144387 3.370551 -0.248232
H -0.158014 1.628787 -0.588849
H 4.669697 0.880907 -0.873186
H 4.045339 2.521797 -2.727546
H 4.488095 4.364448 -0.262767
H 4.339522 4.903604 -2.022176
H 6.469713 2.942319 -0.829095
H 6.361523 3.452887 -2.597371