29
H19 C9 N1
C 0.954167 0.169528 -0.172044
C 2.437379 -0.055143 0.096920
C 3.126314 1.155067 0.720686
C 4.610087 0.937296 0.990153
N 5.219633 2.124341 1.564167
C 6.669909 2.106165 1.679498
C 7.215536 0.972715 2.550715
C 7.426567 2.220609 0.328470
C 8.304989 3.331887 0.941390
C 7.271802 3.478018 2.077801
H 0.485923 -0.719797 -0.621811
H 0.797953 1.014443 -0.862489
H 0.410261 0.398336 0.759050
H 2.947786 -0.315711 -0.846972
H 2.562907 -0.928247 0.761054
H 2.623067 1.412795 1.670790
H 3.011923 2.034625 0.063594
H 5.123135 0.714619 0.037608
H 4.729683 0.030698 1.620387
H 4.819291 2.297208 2.486923
H 6.986850 -0.014256 2.118759
H 6.774874 1.019092 3.560719
H 8.309770 1.040899 2.655934
H 6.759221 2.610802 -0.454351
H 7.930192 1.315327 -0.044287
H 8.490157 4.219592 0.319518
H 9.273639 2.952412 1.299654
H 6.549857 4.283384 1.877160
H 7.649138 3.577716 3.107564