28
P1 H18 C6 N3
C 0.853093 -0.147228 -0.038533
N 2.289860 -0.358108 -0.043629
C 2.890358 0.075896 1.205432
P 2.806851 -1.929893 -0.605542
N 2.102166 -1.879665 -2.160466
C 1.762636 -3.139153 -2.784445
C 2.224230 -0.771880 -3.082710
N 4.482006 -1.614150 -0.709672
C 5.386334 -2.734271 -0.574138
C 5.062037 -0.454069 -1.350238
H 0.636572 0.923128 0.114107
H 0.334806 -0.708692 0.768298
H 0.410196 -0.449703 -0.996423
H 2.686880 1.148295 1.361635
H 3.979138 -0.063596 1.184386
H 2.494755 -0.469010 2.089386
H 2.521507 -3.468712 -3.521954
H 0.796427 -3.066060 -3.316031
H 1.669847 -3.928110 -2.022783
H 2.399890 0.162728 -2.533552
H 1.291908 -0.651468 -3.663386
H 3.050558 -0.913137 -3.806715
H 4.883004 -3.569839 -0.064593
H 6.270859 -2.454495 0.026566
H 5.754467 -3.106341 -1.551082
H 4.349520 0.381484 -1.340638
H 5.355377 -0.652515 -2.399760
H 5.968828 -0.129925 -0.808399