39
H25 C12 N1 O1
C 2.042848 1.001489 0.256265
C 3.183349 0.068284 -0.130721
C 2.846087 -1.130343 -1.034999
C 2.026963 -2.175216 -0.278753
C 2.147743 -0.696308 -2.344202
N 0.707251 -0.571474 -2.247726
C 0.070325 -0.199328 -3.495407
C -1.447573 -0.104954 -3.335577
C -2.136725 0.327337 -4.599511
C -2.750276 -0.454114 -5.503616
C -2.872413 -1.949887 -5.388722
C -3.376850 0.131170 -6.741737
O 4.142377 -1.626191 -1.382430
C 4.243757 -2.916730 -1.910613
H 2.401620 1.757258 0.971417
H 1.208643 0.468180 0.739110
H 1.644043 1.550491 -0.611476
H 3.657514 -0.336282 0.778926
H 3.963601 0.644506 -0.654301
H 1.105042 -1.732146 0.120457
H 2.612356 -2.573394 0.564932
H 1.727184 -3.011600 -0.927404
H 2.356249 -1.464602 -3.107240
H 2.642421 0.233112 -2.703721
H 0.459589 0.112564 -1.536209
H 0.304825 -0.968227 -4.252980
H 0.457857 0.760321 -3.904621
H -1.668182 0.627115 -2.538700
H -1.818802 -1.077439 -2.977823
H -2.096390 1.403930 -4.811244
H -2.424039 -2.355857 -4.472425
H -2.385080 -2.438563 -6.249364
H -3.932346 -2.254566 -5.417078
H -3.256853 1.223435 -6.790360
H -4.455169 -0.100036 -6.781705
H -2.930418 -0.306480 -7.651011
H 5.274624 -3.035307 -2.275986
H 3.564205 -3.096746 -2.764447
H 4.059383 -3.704604 -1.157687