30
H19 C9 N1 O1
C 8.773889 -2.010999 9.281150
O 7.848233 -1.749062 8.268779
C 8.216413 -2.277967 7.028488
C 7.183422 -1.889040 5.976197
C 7.126487 -0.375207 5.805001
N 7.543344 -2.565603 4.736551
C 6.554818 -2.460839 3.675433
C 6.898748 -3.222337 2.399278
C 8.141179 -4.062531 2.248934
C 6.789948 -4.724260 2.277518
C 6.349695 -5.591362 3.432429
H 8.398879 -1.561123 10.211519
H 9.767521 -1.575965 9.056656
H 8.909572 -3.097741 9.447974
H 8.288768 -3.384843 7.086049
H 9.214722 -1.905874 6.716389
H 6.193231 -2.229619 6.353310
H 8.061279 -0.010184 5.348391
H 7.003780 0.104580 6.786115
H 6.285572 -0.060312 5.169914
H 7.699038 -3.548263 4.953029
H 6.458265 -1.398516 3.404638
H 5.544070 -2.774830 4.020918
H 6.598592 -2.679443 1.497736
H 8.779644 -4.176574 3.130031
H 8.688710 -4.017837 1.303436
H 6.422254 -5.074545 1.306726
H 6.752524 -5.244707 4.396013
H 6.685680 -6.631354 3.294211
H 5.251310 -5.605684 3.521026