27
H18 C8 O1
C 0.957292 -0.109030 -0.089026
C 2.480548 -0.075646 -0.057713
C 3.111505 -0.280875 -1.431833
C 4.627207 -0.248179 -1.398274
O 5.127661 -0.444622 -2.692317
C 6.526103 -0.438787 -2.767457
C 6.971701 -0.595086 -4.215995
C 6.440124 0.541386 -5.086526
C 8.493481 -0.698205 -4.289918
H 0.530504 0.041838 0.914602
H 0.587656 -1.075906 -0.467611
H 0.554811 0.679475 -0.745598
H 2.851696 -0.852402 0.633477
H 2.819286 0.889316 0.358154
H 2.757164 0.498900 -2.127924
H 2.789296 -1.248980 -1.852553
H 5.009601 -1.033180 -0.712432
H 4.978831 0.723221 -0.991548
H 6.947955 -1.260456 -2.151877
H 6.932391 0.509549 -2.353181
H 6.539934 -1.543667 -4.582146
H 6.856337 1.510097 -4.760545
H 5.344324 0.606892 -5.023811
H 6.716382 0.395553 -6.142771
H 8.970799 0.222256 -3.913242
H 8.828398 -0.844926 -5.328466
H 8.873062 -1.542397 -3.692490