21
H13 C6 N1 O1
C 2.711290 -1.631930 0.361581
C 2.686351 -0.166025 -0.056706
C 1.275529 0.425087 0.002502
O 0.338429 -0.202517 -0.833153
N 3.256227 -0.018675 -1.378901
C 3.462922 1.326975 -1.923536
C 4.771600 0.836947 -2.566286
C 4.673473 -0.340135 -1.581075
H 3.741206 -2.017359 0.402819
H 2.155587 -2.251726 -0.360679
H 2.265256 -1.763673 1.359504
H 3.284327 0.416154 0.686267
H 0.948151 0.418153 1.061069
H 1.310968 1.481969 -0.306601
H 0.235714 -1.114053 -0.537673
H 3.650013 2.086110 -1.135295
H 2.663933 1.700275 -2.585321
H 5.649273 1.491103 -2.483860
H 4.639823 0.526172 -3.611948
H 5.285730 -0.168163 -0.670887
H 4.886197 -1.354250 -1.958121