24
H13 C7 N1 O1 F2
C 1.047020 -0.779287 -0.243072
C 2.478984 -0.392025 0.065844
C 3.315927 -1.463863 0.811560
O 2.572471 -2.194486 1.764060
C 4.458971 -0.632735 1.435496
C 4.083879 0.840843 1.147304
N 2.656362 0.849011 0.833975
C 1.808355 1.044803 1.992143
C 1.530650 2.516888 2.198868
F 0.773266 2.999799 1.177813
F 0.805841 2.687056 3.339649
H 1.036573 -1.586340 -0.990692
H 0.494496 0.078669 -0.655026
H 0.515309 -1.150882 0.643983
H 2.997986 -0.214711 -0.893588
H 3.692513 -2.215654 0.102172
H 2.295374 -1.593505 2.465986
H 5.441420 -0.891926 1.016558
H 4.502363 -0.840100 2.515627
H 4.642553 1.208265 0.270817
H 4.308647 1.516683 1.984401
H 2.232424 0.653424 2.939026
H 0.829332 0.566257 1.849219
H 2.439565 3.135156 2.270855