24
H13 C7 N1 O1 F2
C 2.636020 0.852416 -0.340286
C 2.312030 -0.605010 -0.051350
O 0.929907 -0.807273 0.158626
C 3.100388 -1.155888 1.141362
N 4.530555 -1.072441 0.973499
C 5.318950 -1.304169 2.175862
C 6.735554 -1.381834 1.626369
C 6.527259 -2.173437 0.348968
F 6.706302 -3.510036 0.584834
F 7.428809 -1.855899 -0.619679
C 5.083112 -1.906811 -0.084409
H 3.707772 0.983728 -0.547616
H 2.381675 1.482368 0.529495
H 2.060427 1.210152 -1.207086
H 2.556726 -1.207331 -0.942611
H 0.664098 -0.247465 0.899119
H 2.763360 -2.201568 1.320692
H 2.825264 -0.569574 2.035975
H 5.048457 -2.257198 2.681027
H 5.179507 -0.488660 2.900752
H 7.463495 -1.868825 2.287709
H 7.096123 -0.378916 1.357015
H 4.562732 -2.880632 -0.178417
H 5.058947 -1.409904 -1.066202