30
H19 C9 N1 O1
C 1.061110 -0.151576 -0.557565
O 2.357304 0.001448 -0.062916
C 2.877938 1.286115 -0.255999
C 4.285323 1.333570 0.317205
N 4.893329 2.637473 0.159469
C 4.393073 3.659279 1.072014
C 4.015243 4.948808 0.342366
C 5.191026 5.749693 -0.218209
C 6.221976 4.952977 -1.024880
C 7.005547 3.943978 -0.176909
C 6.336833 2.579843 0.011801
H 0.739103 -1.184654 -0.362333
H 1.008642 0.030415 -1.649269
H 0.344892 0.536500 -0.066149
H 2.229521 2.043806 0.230409
H 2.917131 1.544706 -1.334253
H 4.891747 0.592471 -0.226710
H 4.255530 0.998046 1.377052
H 5.120494 3.870446 1.882394
H 3.495135 3.271938 1.577358
H 3.440761 5.595885 1.027216
H 3.330947 4.669591 -0.477308
H 5.722124 6.237585 0.619214
H 4.793512 6.568048 -0.841715
H 6.933916 5.670134 -1.464876
H 5.734975 4.440736 -1.872903
H 7.211239 4.401900 0.805335
H 7.993328 3.758319 -0.628050
H 6.821780 2.069617 0.875568
H 6.548849 1.953772 -0.871828