35
H23 C10 N1 O1
C 0.790861 0.236233 0.094764
C 2.295924 0.019415 -0.012767
C 2.955397 0.940891 -1.035942
C 4.480561 0.822009 -1.143218
C 4.941647 -0.603571 -1.512882
C 5.453023 -1.412857 -0.327517
O 5.882853 -2.703038 -0.688608
C 5.024369 1.860662 -2.127991
N 6.462786 2.018724 -2.003213
C 7.110906 2.745044 -3.090711
C 6.696432 4.214009 -3.092522
C 8.621690 2.600471 -2.949061
H 0.337564 -0.440223 0.835962
H 0.292474 0.054559 -0.871598
H 0.556535 1.269694 0.398230
H 2.490822 -1.034008 -0.275959
H 2.764318 0.180270 0.974124
H 2.700811 1.985208 -0.782934
H 2.512519 0.751425 -2.031748
H 4.909154 1.080611 -0.156433
H 5.751329 -0.575324 -2.262096
H 4.110589 -1.151743 -1.992919
H 4.683161 -1.451729 0.467203
H 6.327445 -0.902583 0.109315
H 5.120635 -3.175426 -1.043464
H 4.535623 2.828452 -1.927041
H 4.720981 1.567881 -3.159756
H 6.889471 1.095255 -1.945527
H 6.817557 2.315579 -4.075767
H 6.932018 4.677787 -2.120300
H 5.618713 4.338382 -3.277473
H 7.231603 4.765873 -3.880508
H 8.961938 3.029316 -1.992412
H 9.146295 3.116853 -3.767031
H 8.921808 1.540149 -2.972710