27
H14 C8 N1 O1 F3
C 0.625831 -0.479452 0.545284
C 2.133695 -0.566679 0.430429
O 2.559262 0.303058 -0.594418
C 2.833305 -0.208311 1.745734
N 4.276534 -0.060005 1.548327
C 4.758713 1.297082 1.628984
C 5.887701 1.616153 0.667510
F 7.065436 1.086866 1.020389
F 5.627811 1.191467 -0.580182
F 6.072473 2.942362 0.600270
C 5.095217 -1.027938 2.221906
C 4.957839 -2.473564 1.845857
C 6.201543 -1.718190 1.473457
H 0.147928 -0.761630 -0.404615
H 0.318718 0.549220 0.793333
H 0.254783 -1.153721 1.332007
H 2.411053 -1.610007 0.174800
H 3.525520 0.274199 -0.572107
H 2.631067 -0.987872 2.496641
H 2.402117 0.729411 2.136767
H 5.111797 1.586906 2.638858
H 3.949977 1.985742 1.351186
H 5.285860 -0.820126 3.286991
H 4.258465 -2.718242 1.042401
H 5.009543 -3.212913 2.648850
H 6.323157 -1.449415 0.421880
H 7.130676 -1.928842 2.008883