12
H6 C4 O2
C 4.345141 -0.737360 -0.094690
O 3.537905 0.059887 0.753232
C 2.940582 -1.070806 0.147423
C 1.841978 -0.781914 -0.829523
C 2.060624 -0.627186 -2.268619
O 1.530899 -1.826289 -1.732013
H 5.125938 -1.322703 0.406042
H 4.643438 -0.270180 -1.040186
H 2.714544 -1.894248 0.839880
H 0.967206 -0.289225 -0.381584
H 3.073287 -0.700430 -2.681457
H 1.359278 -0.017787 -2.851536