35
H23 C10 N1 O1
C 3.048710 3.101866 -0.548128
C 2.534089 1.961482 -1.424221
C 1.010860 1.853168 -1.363781
C 3.222824 0.610010 -1.120098
C 2.966272 0.099430 0.294563
N 4.664970 0.692439 -1.327286
C 5.101401 0.811152 -2.706174
C 6.615439 0.686421 -2.815279
C 7.121702 0.835885 -4.245784
C 8.644160 0.853571 -4.395334
C 9.313429 -0.437947 -3.942222
O 9.004745 1.168744 -5.728046
H 2.650352 4.069923 -0.891197
H 4.147286 3.153165 -0.574646
H 2.741706 2.974772 0.503161
H 2.790529 2.207063 -2.469144
H 0.650564 1.707520 -0.332499
H 0.640616 1.011499 -1.971643
H 0.540313 2.772605 -1.746405
H 2.773850 -0.125844 -1.826222
H 3.405756 0.772357 1.047255
H 3.421339 -0.895177 0.429079
H 1.891566 -0.000598 0.502853
H 5.094834 -0.139114 -0.925391
H 4.797780 1.794068 -3.104497
H 4.622461 0.052054 -3.365291
H 6.920344 -0.292718 -2.406396
H 7.080341 1.452364 -2.170463
H 6.739573 1.776780 -4.676399
H 6.718096 0.017984 -4.871999
H 9.040252 1.685808 -3.787971
H 8.907190 -1.300681 -4.497989
H 9.160953 -0.623646 -2.868546
H 10.396546 -0.386976 -4.129449
H 8.680150 0.453550 -6.289360