27
H17 C8 N1 O1
C 1.403077 0.057226 1.037179
O 2.642115 -0.341029 0.523245
C 2.653348 -0.456619 -0.868750
C 3.999933 -0.977553 -1.380730
N 3.419930 -2.312874 -1.560098
C 3.794070 -3.049914 -2.745266
C 3.453869 -4.542972 -2.709884
C 1.957675 -4.806938 -2.543189
C 3.991165 -5.226600 -3.966726
C 2.061336 -1.768616 -1.426683
H 1.494652 0.120611 2.130737
H 0.596579 -0.661947 0.798543
H 1.098156 1.050001 0.652103
H 2.279319 0.470515 -1.339679
H 4.837582 -0.914866 -0.665975
H 4.298550 -0.493703 -2.330658
H 4.886773 -2.950098 -2.858182
H 3.341815 -2.595934 -3.659786
H 3.974327 -4.967829 -1.833122
H 1.377984 -4.320781 -3.346526
H 1.580252 -4.435496 -1.579492
H 1.744586 -5.887075 -2.584985
H 3.496559 -4.833922 -4.871463
H 3.812413 -6.312803 -3.935721
H 5.075228 -5.067494 -4.082611
H 1.388744 -2.322527 -0.751418
H 1.550263 -1.625282 -2.399054