28
H17 C8 N1 O2
C 9.853467 3.604852 -0.194974
C 9.331033 2.203749 0.093496
C 7.982059 2.219769 0.810436
N 7.460367 0.897174 1.080294
C 7.657698 0.248326 2.251745
O 8.254803 0.734013 3.199292
C 7.008812 -1.148611 2.316084
C 5.493608 -1.031128 2.502959
C 5.081539 -0.296819 3.772524
O 7.524093 -1.906524 3.367002
C 8.843553 -2.339010 3.185444
H 10.825955 3.570610 -0.709005
H 9.987022 4.180085 0.735550
H 9.156139 4.167785 -0.836629
H 10.053748 1.651228 0.716915
H 9.229320 1.637274 -0.848002
H 7.242180 2.771593 0.208576
H 8.078619 2.741020 1.774216
H 7.020233 0.394448 0.317198
H 7.203251 -1.656768 1.348388
H 5.071373 -0.530793 1.617101
H 5.089160 -2.056067 2.511036
H 5.397064 0.758198 3.753376
H 5.531414 -0.765745 4.659812
H 3.987868 -0.314853 3.893797
H 9.113288 -2.959658 4.051707
H 9.556070 -1.498025 3.125164
H 8.948582 -2.953569 2.270047