15
H9 C3 S1 N1 O1
N 2.874754 -1.251587 -0.513259
C 2.495146 0.020942 0.085027
C 0.974467 -0.005905 0.270542
O 0.588948 -1.190516 0.906010
C 2.932745 1.265195 -0.687295
S 4.736313 1.415554 -0.922968
H 3.882969 -1.386891 -0.460529
H 2.637436 -1.253433 -1.507320
H 2.947824 0.054646 1.091500
H 0.647800 0.852922 0.879200
H 0.492864 0.099759 -0.726148
H 1.224174 -1.842766 0.562414
H 2.553546 2.176826 -0.201324
H 2.516035 1.240825 -1.707586
H 5.058367 1.570848 0.379787