27
H17 C8 N1 O1
C 0.808752 -0.202222 0.092506
C 2.317028 -0.066901 -0.027322
N 2.991867 -1.031469 0.829122
C 4.446197 -1.064513 0.740974
C 5.102199 0.082310 1.501202
O 4.907647 1.303803 0.840789
C 5.464433 2.390572 1.518930
C 4.940191 -2.382529 1.301039
C 4.882565 -3.618929 0.447338
C 6.209993 -2.995195 0.787814
H 0.295315 0.541170 -0.535985
H 0.486001 -0.056503 1.135403
H 0.472299 -1.202271 -0.228513
H 2.630353 0.944021 0.268370
H 2.616099 -0.179309 -1.093201
H 2.647871 -1.961028 0.590630
H 4.793154 -0.989812 -0.314326
H 6.187679 -0.124816 1.596903
H 4.680648 0.120277 2.526947
H 5.274075 3.297198 0.927017
H 6.559186 2.279657 1.648372
H 5.017156 2.526870 2.523072
H 4.725738 -2.519273 2.367050
H 4.517551 -3.505716 -0.578246
H 4.615840 -4.566002 0.923362
H 6.741170 -2.465706 -0.008894
H 6.858673 -3.511753 1.499924