17
H10 C5 N2
C 5.668086 -1.545292 3.317992
C 5.011658 -2.035575 2.039324
N 5.122011 -1.029204 0.992596
C 4.588170 -1.371528 -0.308829
C 3.066755 -1.526549 -0.315308
C 5.227981 -2.590893 -0.883113
N 5.755008 -3.538486 -1.286605
H 5.558656 -2.289340 4.120725
H 5.212452 -0.601103 3.654195
H 6.745607 -1.369494 3.166640
H 3.944909 -2.234649 2.229040
H 5.463656 -3.005223 1.741298
H 6.093632 -0.738152 0.896291
H 4.853369 -0.554262 -0.997716
H 2.740819 -2.396440 0.272373
H 2.696905 -1.648209 -1.343206
H 2.620867 -0.619941 0.117745