35
H23 C10 N1 O1
C 2.934942 5.630786 5.779712
C 4.368395 6.020659 5.437468
C 4.658448 5.964664 3.939635
C 6.098250 6.314673 3.541044
C 6.388072 7.812581 3.679290
C 7.861911 8.181624 3.536347
N 6.359029 5.899077 2.168015
C 6.705368 4.499993 1.998680
C 7.135143 4.168196 0.566645
C 7.225284 2.656164 0.368094
C 8.471536 4.811564 0.182388
O 8.479192 6.225682 0.203979
H 2.752654 5.671730 6.864915
H 2.708086 4.606368 5.441451
H 2.211678 6.306368 5.294297
H 5.068309 5.348622 5.964714
H 4.569873 7.033247 5.825716
H 3.970837 6.636643 3.394429
H 4.434057 4.945427 3.581446
H 6.778472 5.778858 4.243831
H 5.788718 8.347725 2.921159
H 6.028265 8.157937 4.660825
H 8.273359 7.903356 2.552923
H 8.470308 7.675418 4.303456
H 8.010445 9.265948 3.655120
H 7.120806 6.448009 1.778292
H 5.833731 3.873537 2.256720
H 7.520639 4.182283 2.690141
H 6.361125 4.568057 -0.114834
H 7.977290 2.212941 1.042226
H 7.511505 2.402121 -0.664325
H 6.260531 2.170170 0.578328
H 8.778651 4.441214 -0.813997
H 9.247450 4.489950 0.897198
H 7.860713 6.536540 -0.468869