24
H15 C6 N1 O2
C 1.000395 0.107541 -0.020194
O 2.393799 0.147220 0.057258
C 2.875216 1.182153 0.864989
C 4.391502 1.133028 0.879059
N 4.927587 2.197815 1.702091
C 6.374741 2.261925 1.711617
C 6.850763 3.443912 2.535009
O 8.248358 3.482404 2.509879
C 8.786516 4.539619 3.245988
H 0.717470 -0.731270 -0.672252
H 0.581361 1.039810 -0.447737
H 0.533421 -0.048607 0.972430
H 2.485463 1.084310 1.900843
H 2.541484 2.171551 0.490768
H 4.757278 1.260942 -0.153739
H 4.712827 0.120571 1.205010
H 4.594919 2.076789 2.658690
H 6.733711 2.387590 0.676155
H 6.853610 1.338562 2.102265
H 6.480010 3.350658 3.578247
H 6.416307 4.378181 2.124308
H 9.881888 4.490907 3.164592
H 8.512766 4.481027 4.318084
H 8.450889 5.524333 2.864909