33
H21 C10 N1 O1
C 0.620485 -0.018573 -0.214201
C 2.024180 -0.559844 -0.061264
O 2.756061 -0.288911 -1.228179
C 4.082779 -0.735737 -1.179510
C 4.738964 -0.387947 -2.517892
N 6.174855 -0.536512 -2.627519
C 6.705332 -1.855184 -2.311758
C 7.169144 -1.810421 -0.835273
C 7.393334 -0.309143 -0.554527
C 7.065321 0.381363 -1.903063
C 6.651758 1.856822 -1.854477
C 5.611043 2.315837 -0.833272
H 0.030648 -0.225370 0.691147
H 0.114415 -0.487212 -1.072110
H 0.638126 1.070234 -0.375320
H 1.996696 -1.652244 0.128804
H 2.521002 -0.098426 0.816634
H 4.119172 -1.829719 -1.000934
H 4.620054 -0.256789 -0.338789
H 4.469537 0.649373 -2.767218
H 4.266200 -1.012492 -3.295050
H 7.576338 -2.058214 -2.960624
H 5.960425 -2.639177 -2.512326
H 8.078870 -2.409656 -0.682418
H 6.394904 -2.221918 -0.170475
H 8.423534 -0.084622 -0.239217
H 6.727769 0.042295 0.247456
H 8.006013 0.366015 -2.484789
H 6.328844 2.146583 -2.869052
H 7.575470 2.428875 -1.666661
H 4.613338 1.886345 -1.000549
H 5.503367 3.410521 -0.886077
H 5.911922 2.071677 0.197232