22
H13 C6 N1 O2
C 1.360935 -0.668686 -0.283039
C 2.609713 -0.083974 0.373313
C 2.449553 1.387665 0.749339
N 3.059972 -0.887513 1.522551
C 2.287896 -1.061268 2.619221
O 1.174899 -0.597459 2.799215
C 4.361293 -1.525581 1.446978
C 4.364428 -2.765736 0.554241
O 5.623595 -3.384182 0.522938
H 1.117636 -0.104718 -1.196336
H 0.501081 -0.619763 0.398989
H 1.525309 -1.720504 -0.563022
H 3.429857 -0.151519 -0.357592
H 1.636798 1.519369 1.477005
H 2.216592 1.982959 -0.146593
H 3.379945 1.779749 1.188250
H 2.788561 -1.695861 3.386849
H 4.679696 -1.817470 2.458795
H 5.100440 -0.795993 1.073911
H 4.011760 -2.500633 -0.461067
H 3.649685 -3.498034 0.962838
H 6.232815 -2.797167 0.059555