17
H11 C4 N1 O1
C 1.002122 0.011651 0.083752
C 2.511867 0.098921 0.070188
O 3.052398 -1.164334 0.354056
C 4.450309 -1.189219 0.371295
C 4.919978 -2.598292 0.683760
N 6.373545 -2.645390 0.723246
H 0.560413 0.994708 -0.137215
H 0.640260 -0.317175 1.070018
H 0.646858 -0.705745 -0.671843
H 2.860456 0.842050 0.816510
H 2.867128 0.455098 -0.918762
H 4.855013 -0.489635 1.131250
H 4.860905 -0.865930 -0.609360
H 4.459695 -3.288248 -0.051804
H 4.525487 -2.882506 1.672931
H 6.743557 -2.542926 -0.222178
H 6.677698 -3.567588 1.031375