32
H21 C10 N1
C 1.345857 0.810742 0.478080
C 2.367888 -0.050124 0.396124
C 2.852937 -0.824640 1.592555
C 3.093404 -0.290302 -0.906997
C 4.577596 0.089208 -0.851749
N 5.262070 -0.156818 -2.109536
C 4.791079 0.725351 -3.180989
C 4.069001 -0.008239 -4.304061
C 6.726754 -0.254294 -2.042858
C 7.213022 -1.108806 -0.872596
C 7.278369 -0.843055 -3.343118
H 0.813973 0.979972 1.420176
H 1.003865 1.374450 -0.396149
H 2.187024 -0.697690 2.458186
H 3.862939 -0.500693 1.893995
H 2.923624 -1.900048 1.359297
H 2.585121 0.265949 -1.709020
H 3.033749 -1.362004 -1.168420
H 5.046197 -0.515247 -0.066752
H 4.666525 1.151665 -0.526442
H 5.637447 1.297659 -3.599841
H 4.116002 1.490291 -2.758907
H 4.726584 -0.750699 -4.781190
H 3.730841 0.697281 -5.080333
H 3.185731 -0.541955 -3.920560
H 7.168985 0.761675 -1.919446
H 6.708334 -2.089148 -0.871161
H 7.054629 -0.634016 0.105687
H 8.294326 -1.284766 -0.973173
H 6.895436 -1.866616 -3.488096
H 8.377458 -0.886832 -3.303992
H 7.007350 -0.249581 -4.227704