39
H25 C12 N1 O1
C 10.153383 -13.058412 0.046955
C 9.608440 -12.143108 0.847562
C 10.372688 -11.060401 1.544635
O 9.740768 -9.828139 1.318522
C 10.333077 -8.762223 2.005779
C 9.573862 -7.488333 1.686420
N 10.149264 -6.363716 2.395327
C 9.445582 -5.113165 2.176551
C 9.980465 -3.961989 3.034386
C 9.105584 -2.724450 2.839473
C 11.459968 -3.682693 2.733929
C 12.112664 -2.518048 3.492325
C 11.997929 -2.677308 5.008193
C 13.574898 -2.371231 3.070749
H 9.550789 -13.849494 -0.409074
H 11.225750 -13.056399 -0.178463
H 8.531238 -12.163567 1.054159
H 11.424437 -11.040233 1.194557
H 10.402339 -11.277099 2.633891
H 11.398056 -8.650745 1.711718
H 10.319750 -8.936264 3.100765
H 8.524851 -7.615386 2.003729
H 9.555299 -7.351389 0.583688
H 11.118821 -6.258995 2.100505
H 8.384086 -5.275744 2.431497
H 9.458668 -4.800996 1.106847
H 9.894692 -4.288683 4.085746
H 9.209157 -2.323179 1.816908
H 9.370238 -1.919548 3.541235
H 8.041954 -2.962636 2.999388
H 11.566111 -3.500065 1.648018
H 12.048962 -4.591542 2.953989
H 11.592794 -1.585958 3.208831
H 12.455862 -3.625578 5.338732
H 10.950505 -2.676816 5.347098
H 12.514294 -1.856955 5.531865
H 14.155692 -3.268906 3.343788
H 14.048958 -1.505736 3.560657
H 13.667615 -2.232911 1.981530