36
H23 C11 N1 O1
C 2.270508 0.659638 0.981104
C 2.969655 1.996272 0.752890
C 4.469276 1.902072 0.418378
N 5.274553 1.356240 1.505568
C 6.080163 2.286378 2.280512
C 5.282412 3.268579 3.138738
C 7.046616 1.463001 3.125474
O 7.909484 2.309062 3.829697
C 8.801167 1.626231 4.659126
C 4.690815 1.136743 -0.885159
C 6.059314 0.651045 -1.274058
C 4.985922 -0.335943 -0.897617
C 4.364028 -1.242399 -1.930719
H 1.214355 0.815197 1.249897
H 2.730790 0.086434 1.802718
H 2.295055 0.028187 0.079833
H 2.853394 2.629110 1.647870
H 2.465661 2.529848 -0.070681
H 4.817092 2.934916 0.240223
H 4.706257 0.785871 2.128108
H 6.691975 2.864090 1.565489
H 4.633005 2.721410 3.843239
H 4.645690 3.915324 2.516026
H 5.956992 3.911810 3.722420
H 7.614579 0.780346 2.462154
H 6.469419 0.822846 3.828406
H 9.435835 2.368432 5.164163
H 9.454540 0.937471 4.088154
H 8.275634 1.031131 5.431914
H 4.063445 1.496340 -1.709534
H 6.868165 0.813587 -0.555504
H 6.351514 0.717348 -2.326748
H 5.111360 -0.778738 0.096292
H 4.268486 -0.731616 -2.902193
H 3.355972 -1.566386 -1.623485
H 4.970451 -2.149227 -2.088682