35
H23 C10 N1 O1
C 0.973753 0.025258 0.257176
C 2.460244 -0.297631 0.155806
C 2.950518 -0.342049 -1.291030
C 4.471295 -0.463321 -1.447632
C 4.996486 -1.682402 -0.687208
N 4.880441 -0.552089 -2.858095
C 4.113838 0.232998 -3.805089
C 6.312399 -0.356478 -3.048985
C 6.965782 -1.387945 -3.970301
O 6.469113 -1.315261 -5.295956
C 8.491293 -1.282150 -3.941302
C 9.186489 -2.311793 -4.821943
H 0.634509 0.035726 1.304635
H 0.367509 -0.720823 -0.282289
H 0.747185 1.012420 -0.177762
H 2.652810 -1.261764 0.653318
H 3.040805 0.457883 0.714645
H 2.604433 0.576636 -1.790307
H 2.467958 -1.186209 -1.816960
H 4.913367 0.450861 -0.985575
H 4.468019 -2.591109 -1.019617
H 4.852347 -1.572541 0.397442
H 6.071589 -1.841360 -0.852901
H 3.064334 -0.089023 -3.848332
H 4.535293 0.076769 -4.805893
H 4.130452 1.326216 -3.593350
H 6.829194 -0.406602 -2.079718
H 6.526822 0.660510 -3.444030
H 6.667764 -2.386869 -3.608421
H 6.762227 -0.472749 -5.666950
H 8.830686 -1.388716 -2.897650
H 8.779054 -0.261744 -4.256229
H 8.954970 -3.337019 -4.490078
H 10.279893 -2.188409 -4.794999
H 8.858289 -2.220182 -5.867891