29
H16 C8 N1 O1 F3
C 0.904475 0.009635 -0.289702
C 2.327333 -0.181444 0.226386
O 2.335129 -0.079352 1.637720
C 2.980871 -1.493982 -0.248875
C 2.706616 -1.745728 -1.733430
N 4.434051 -1.534467 -0.030075
C 5.007631 -0.803647 1.082731
C 4.977248 -2.881709 -0.095257
C 6.273366 -2.929924 -0.904024
C 6.872790 -4.304672 -0.989357
F 7.189038 -4.802935 0.217915
F 6.039914 -5.191479 -1.561068
F 8.000558 -4.312825 -1.715834
H 0.469684 0.892694 0.200698
H 0.274566 -0.862643 -0.045276
H 0.865224 0.169975 -1.375885
H 2.943225 0.658907 -0.137093
H 1.812638 -0.814380 1.981975
H 2.480657 -2.299394 0.339302
H 3.025303 -0.877122 -2.332117
H 1.642013 -1.937226 -1.927758
H 3.262409 -2.621130 -2.097569
H 4.748604 0.261308 1.047669
H 6.105346 -0.868542 1.019634
H 4.703691 -1.192474 2.076034
H 4.250876 -3.558330 -0.566047
H 5.157638 -3.287942 0.920495
H 7.040922 -2.274493 -0.466922
H 6.086063 -2.588408 -1.932371