30
H19 C8 N1 O2
C 3.920830 -6.593367 -0.324088
O 3.657853 -5.811353 0.801770
C 4.359575 -4.597831 0.808238
C 4.013093 -3.840505 2.077349
C 4.877830 -2.608891 2.380704
C 4.696869 -1.442410 1.396770
O 5.381131 -1.630170 0.175295
N 6.285670 -2.976856 2.510346
C 7.048817 -2.239030 3.516040
C 6.751456 -2.777795 4.912855
C 8.532806 -2.351427 3.188787
H 3.337143 -7.521504 -0.241160
H 4.993350 -6.860300 -0.403476
H 3.630844 -6.081642 -1.263467
H 4.092069 -4.015382 -0.098574
H 5.452004 -4.783146 0.767016
H 4.133558 -4.546256 2.915353
H 2.949793 -3.549276 2.047908
H 4.526074 -2.231868 3.355070
H 3.621660 -1.242944 1.235179
H 5.128808 -0.535041 1.848473
H 4.864036 -2.222199 -0.381470
H 6.718854 -2.835919 1.598121
H 6.783123 -1.159500 3.505475
H 7.053837 -3.835392 4.985069
H 5.678448 -2.716246 5.152282
H 7.295591 -2.204964 5.680081
H 8.840624 -3.409807 3.164273
H 9.144475 -1.831452 3.941285
H 8.756178 -1.908168 2.204866