32
H19 C9 N1 O1 F2
C 0.936092 -0.337852 -0.123265
C 2.414901 0.028614 -0.177889
C 2.910551 0.661545 1.122019
C 4.426609 0.889656 1.184482
C 4.899465 1.772040 0.023977
C 4.903715 1.472051 2.531720
C 4.299200 0.805910 3.776911
O 2.981537 1.191676 4.073052
N 6.356851 1.345259 2.631852
C 7.017337 2.419964 3.333814
C 8.444518 2.041845 3.634512
F 9.128167 1.842990 2.469618
F 9.069584 3.057576 4.286161
H 0.593126 -0.779610 -1.071880
H 0.313700 0.550279 0.075006
H 0.734234 -1.067516 0.677984
H 2.584219 0.712946 -1.025328
H 3.011777 -0.876095 -0.391652
H 2.601779 0.020579 1.960907
H 2.391567 1.624505 1.281323
H 4.914891 -0.099982 1.092039
H 4.332240 2.717832 0.003700
H 4.761352 1.275711 -0.947283
H 5.967196 2.029374 0.099350
H 4.603162 2.544178 2.554408
H 4.971228 1.011863 4.631892
H 4.296287 -0.288013 3.638317
H 2.966040 2.152704 4.152821
H 6.773466 1.245413 1.710741
H 6.521306 2.599374 4.300223
H 7.025443 3.384286 2.784147
H 8.531230 1.125309 4.238422