30
H19 C9 N1 O1
C 2.582189 0.224774 1.432556
C 2.560732 0.313218 -0.093481
C 3.323049 1.545232 -0.631322
C 4.810434 1.618918 -0.272939
C 5.753956 0.831549 -1.192324
C 5.240121 -0.533584 -1.674815
C 4.353509 -1.309610 -0.686402
N 2.938398 -0.967596 -0.692193
C 2.247652 -1.269813 -1.930259
C 0.878525 -1.899986 -1.681942
O 0.204518 -2.211436 -2.876281
H 2.270344 1.177861 1.888015
H 3.581538 -0.019112 1.824746
H 1.893236 -0.564070 1.770363
H 1.507369 0.472250 -0.375268
H 2.812832 2.437966 -0.232778
H 3.198107 1.592202 -1.727687
H 4.944415 1.279863 0.767021
H 5.131415 2.673187 -0.275306
H 6.710884 0.695100 -0.661106
H 5.991596 1.443010 -2.079199
H 6.107101 -1.160171 -1.941334
H 4.671869 -0.408583 -2.611528
H 4.743958 -1.194148 0.338789
H 4.428939 -2.385474 -0.914665
H 2.841861 -1.986133 -2.519145
H 2.118374 -0.374922 -2.577940
H 0.270123 -1.240345 -1.032574
H 1.018867 -2.844522 -1.132993
H 0.022661 -1.383507 -3.336209