22
H14 C6 O2
C 2.696450 2.825905 0.400712
C 2.270056 2.115064 -0.879113
C 2.947876 0.760587 -1.120310
O 2.531947 -0.203285 -0.170920
C 4.475579 0.818299 -1.179734
C 5.026851 1.775401 -2.218837
O 6.416908 1.612930 -2.297864
C 7.020961 2.476786 -3.212901
H 2.113108 3.747149 0.549538
H 3.760631 3.109193 0.380830
H 2.533584 2.193309 1.288745
H 2.454867 2.768270 -1.748316
H 1.183092 1.933080 -0.856477
H 2.583447 0.380288 -2.089755
H 2.911431 0.041457 0.681655
H 4.847076 -0.194438 -1.402827
H 4.877061 1.093177 -0.188449
H 4.780411 2.824523 -1.956262
H 4.556555 1.578123 -3.205747
H 8.102387 2.277975 -3.209397
H 6.860731 3.541153 -2.949131
H 6.641360 2.324132 -4.242770