22
H13 C7 N1 O1
C 0.657665 1.108155 -0.110486
C 1.047985 -0.348542 0.211383
C -0.415231 -0.780959 -0.038364
N -0.582916 -1.302983 -1.383476
C -1.804970 -1.992141 -1.699132
C -2.338355 -3.193568 -0.881687
O -3.643118 -2.613928 -0.825705
C -3.162148 -1.367131 -1.331513
C -0.821351 0.713571 0.083863
H 0.878857 1.370669 -1.155422
H 1.061669 1.895115 0.543401
H 1.331098 -0.481138 1.265755
H 1.813066 -0.827419 -0.420331
H -0.845027 -1.444408 0.735885
H 0.208700 -1.891162 -1.633979
H -1.777687 -2.252646 -2.767684
H -1.885310 -3.306433 0.120500
H -2.332483 -4.175539 -1.384135
H -3.113347 -0.598887 -0.540208
H -3.774696 -0.977931 -2.161966
H -1.189945 0.955636 1.092402
H -1.542084 1.082350 -0.660551