30
H18 C9 N1 O1 F1
C 4.029452 -1.694877 -2.390490
C 2.983219 -1.110078 -1.453603
O 1.755028 -0.884777 -2.117552
C 2.750416 -1.933882 -0.168414
C 2.331968 -3.395243 -0.432422
C 3.591469 -4.207923 -0.130119
C 4.199976 -3.418216 1.017592
N 3.960002 -2.024083 0.661562
C 4.029896 -1.130269 1.798148
C 4.099965 0.346787 1.430195
C 4.308815 1.214949 2.650502
F 4.313771 2.554473 2.284530
H 4.193676 -1.017954 -3.242346
H 3.709353 -2.670908 -2.792103
H 4.984730 -1.834844 -1.864932
H 3.325560 -0.112118 -1.139422
H 1.473472 -1.721911 -2.506250
H 1.941613 -1.410521 0.377027
H 1.942540 -3.560212 -1.449005
H 1.530484 -3.682399 0.265182
H 4.273095 -4.213849 -0.994433
H 3.378301 -5.251962 0.140096
H 5.276255 -3.610580 1.160330
H 3.689275 -3.688494 1.968352
H 4.936112 -1.392452 2.370256
H 3.169854 -1.292628 2.488866
H 3.168677 0.666493 0.935850
H 4.926327 0.509886 0.719396
H 5.271553 0.995219 3.140410
H 3.501558 1.069933 3.387176