27
H17 C8 N1 O1
C 0.987858 -0.239623 0.050099
C 2.494912 -0.071316 -0.072303
C 2.888604 0.291719 -1.508685
O 2.556230 -0.704817 -2.443394
N 2.964430 0.964075 0.838861
C 4.337917 0.819415 1.290298
C 4.869967 2.065698 1.982096
C 4.825910 3.420121 1.239954
C 4.498216 4.102934 2.584406
C 4.076874 2.724688 3.137888
H 0.620707 -0.945515 -0.707914
H 0.482380 0.728200 -0.104297
H 0.707615 -0.620714 1.044869
H 2.970574 -1.051272 0.160410
H 3.967557 0.534699 -1.547713
H 2.343424 1.204257 -1.801079
H 3.067772 -1.493608 -2.227595
H 2.350771 0.993844 1.649612
H 4.976779 0.620069 0.413691
H 4.464793 -0.055345 1.964692
H 5.898990 1.858398 2.319022
H 3.967505 3.449712 0.551751
H 5.731222 3.740374 0.701485
H 3.742873 4.903221 2.581165
H 5.405668 4.479340 3.081441
H 2.991601 2.569998 3.030346
H 4.366740 2.467928 4.168343