30
H19 C8 N1 O2
C 4.777098 2.715650 -3.736726
C 4.430470 1.330550 -3.238410
O 5.403705 0.421242 -3.680492
C 5.173105 -0.897712 -3.269918
C 6.291755 -1.757237 -3.857444
N 6.269389 -3.176009 -3.545608
C 5.011099 -3.840643 -3.809675
C 6.974934 -3.626009 -2.343965
C 6.606915 -2.940189 -1.031219
C 8.483983 -3.560458 -2.618291
O 8.769488 -4.093723 -3.878740
H 4.024104 3.442819 -3.398286
H 4.809603 2.736522 -4.836847
H 5.760131 3.031817 -3.355382
H 3.428406 1.029144 -3.606795
H 4.374278 1.323632 -2.130521
H 4.184877 -1.246737 -3.631446
H 5.151845 -0.965263 -2.165606
H 7.253998 -1.333588 -3.531269
H 6.253289 -1.631091 -4.954291
H 4.627605 -3.530957 -4.794882
H 4.219635 -3.632241 -3.061416
H 5.161778 -4.931048 -3.838896
H 6.723211 -4.695757 -2.252731
H 6.906013 -1.880297 -1.029517
H 7.122506 -3.432479 -0.191595
H 5.524870 -2.996647 -0.838833
H 9.019802 -4.136420 -1.845112
H 8.834723 -2.509979 -2.530318
H 7.954369 -3.904171 -4.378780