27
H17 C8 N1 O1
C 2.490138 0.445880 0.299094
C 1.000128 0.234798 0.548901
C 0.212383 1.387576 -0.083959
C -1.295270 1.226205 0.062299
C -1.717161 -0.134047 -0.478361
C -0.912418 -1.238302 0.189726
N 0.525212 -1.052302 0.030138
C 1.276834 -2.211468 0.494237
C 2.176502 -2.793422 -0.592828
O 2.837816 -3.962396 -0.175654
H 2.792352 1.433094 0.680417
H 2.708946 0.415076 -0.780426
H 3.118791 -0.303816 0.800501
H 0.828213 0.274343 1.651695
H 0.473297 1.433253 -1.156449
H 0.548674 2.333844 0.369063
H -1.823323 2.040740 -0.458456
H -1.571691 1.296725 1.129473
H -1.541963 -0.170969 -1.567498
H -2.791254 -0.313752 -0.312838
H -1.183610 -2.211106 -0.248657
H -1.192204 -1.284927 1.268461
H 0.584759 -3.008344 0.811710
H 1.883653 -1.973371 1.389512
H 2.888590 -2.024256 -0.946239
H 1.550244 -3.067128 -1.457000
H 3.439765 -3.720646 0.537996