27
H15 C8 N1 O1 F2
C 0.822650 0.380008 -0.140520
C 2.308625 0.040562 -0.207690
C 3.275332 1.195719 -0.503266
C 3.030259 1.914124 -1.830755
N 2.028114 2.917495 -1.504607
C 1.798111 3.917534 -2.509189
C 0.402691 4.491989 -2.440537
F 0.224058 5.209954 -1.294866
F 0.216964 5.361141 -3.471025
C 2.256405 3.384375 -0.139484
C 3.208461 2.359414 0.509687
O 4.482341 2.906227 0.779280
H 0.234873 -0.522713 0.088760
H 0.454890 0.794589 -1.089973
H 0.607983 1.118850 0.648139
H 2.466111 -0.737208 -0.974259
H 2.615274 -0.413090 0.750612
H 4.295505 0.784847 -0.471521
H 2.668859 1.240640 -2.625714
H 3.975759 2.373381 -2.197857
H 1.890345 3.456423 -3.504062
H 2.518128 4.764954 -2.465321
H -0.381085 3.719381 -2.482878
H 1.307753 3.475989 0.413519
H 2.741838 4.380184 -0.115504
H 2.828171 2.019155 1.484280
H 4.861534 3.205245 -0.056789