30
H18 C10 N2
C 1.301817 0.800194 -0.778524
C 2.277693 0.341647 0.014754
C 2.726390 1.091687 1.240604
C 2.984191 -0.960947 -0.281524
C 4.474359 -0.776909 -0.582692
N 5.149128 -2.042337 -0.829358
C 4.688186 -2.725101 -2.046001
C 3.924529 -4.009864 -1.757442
C 6.603876 -1.990032 -0.721184
C 7.129446 -1.312349 0.547905
C 7.120991 -3.376502 -0.743663
N 7.530092 -4.457566 -0.754293
H 0.782737 1.739762 -0.562528
H 0.986000 0.249089 -1.670390
H 2.073745 1.950286 1.454073
H 3.754721 1.472105 1.123116
H 2.733816 0.429584 2.122278
H 2.483392 -1.457918 -1.125825
H 2.898176 -1.633098 0.590450
H 4.938390 -0.294215 0.285493
H 4.589712 -0.075032 -1.438297
H 5.549926 -2.951823 -2.697392
H 4.056705 -2.039389 -2.636832
H 4.555991 -4.729091 -1.213621
H 3.596703 -4.485363 -2.695454
H 3.032371 -3.811157 -1.144653
H 7.068602 -1.488024 -1.598137
H 6.622116 -1.713694 1.437601
H 6.981324 -0.226142 0.504107
H 8.208997 -1.493992 0.643878