33
H21 C10 N1 O1
C 3.228127 3.277819 -1.043760
C 2.518689 2.206751 -1.398718
C 2.976927 0.773847 -1.260873
C 2.220294 0.116907 -0.110154
O 2.577032 -1.236440 -0.051789
C 2.034358 -1.911610 1.046543
N 4.401063 0.641062 -1.020528
C 5.226169 0.766667 -2.209900
C 6.724445 0.765008 -1.895481
C 7.146934 -0.510878 -1.166723
C 7.523527 0.992871 -3.185955
C 9.021961 1.194690 -2.988492
H 2.825012 4.288833 -1.152291
H 4.237756 3.171842 -0.635087
H 1.507413 2.334517 -1.803502
H 2.669238 0.237769 -2.186482
H 2.486366 0.633036 0.835140
H 1.128927 0.233595 -0.258627
H 2.372874 -2.956400 1.004261
H 0.927528 -1.900280 1.030873
H 2.367189 -1.471776 2.006445
H 4.545721 -0.279856 -0.610661
H 4.972783 1.716197 -2.709204
H 5.011991 -0.037651 -2.949750
H 6.915427 1.621346 -1.222096
H 6.942982 -1.402129 -1.785092
H 6.609503 -0.628425 -0.212928
H 8.220646 -0.506480 -0.926687
H 7.109653 1.878377 -3.698490
H 7.353138 0.140091 -3.868119
H 9.222988 2.023106 -2.289354
H 9.514886 1.437799 -3.942590
H 9.513264 0.294367 -2.588311