30
H20 C8 N2
C 0.985937 -0.206690 0.140238
C 2.500422 -0.086973 0.125765
N 2.958976 0.653587 -1.036375
C 4.393010 0.858152 -1.076627
C 4.842031 1.566376 -2.363089
N 4.160108 2.836182 -2.595898
C 6.364684 1.734395 -2.358128
C 7.020005 2.196336 -3.671801
C 6.935253 3.709445 -3.881684
C 8.478082 1.735639 -3.728870
H 0.645095 -0.800104 1.001942
H 0.625491 -0.691178 -0.780643
H 0.512169 0.786532 0.208316
H 2.951152 -1.094478 0.095225
H 2.844491 0.371122 1.079450
H 2.497013 1.562697 -1.037993
H 4.885176 -0.128154 -1.021402
H 4.765350 1.440679 -0.201640
H 4.574624 0.903900 -3.206096
H 4.288891 3.453491 -1.792387
H 3.156425 2.691069 -2.693877
H 6.793051 0.756543 -2.080701
H 6.649801 2.428180 -1.544116
H 6.480194 1.706032 -4.502761
H 7.489716 4.241076 -3.088725
H 5.892129 4.050557 -3.853245
H 7.377036 4.001320 -4.848474
H 9.054047 2.155567 -2.886249
H 8.966290 2.063951 -4.660600
H 8.559919 0.638197 -3.674674