30
H19 C9 N1 O1
C 12.172286 -5.448923 2.892029
C 11.721996 -4.305286 3.411498
C 10.352763 -4.088652 3.984618
C 9.562585 -3.004350 3.247185
C 8.200708 -2.741407 3.901308
N 7.288368 -1.850218 3.221787
C 6.659006 -2.369272 2.033177
C 7.581978 -0.421745 3.252197
C 6.382001 0.370676 3.778882
C 8.037632 0.176984 1.912979
O 9.119825 -0.482327 1.309137
H 13.183952 -5.532868 2.483339
H 11.545324 -6.347450 2.857863
H 12.386003 -3.430060 3.420147
H 10.451925 -3.792446 5.045265
H 9.788347 -5.036530 3.973290
H 9.422600 -3.299457 2.194510
H 10.152961 -2.072642 3.237274
H 8.371720 -2.355380 4.922557
H 7.687132 -3.711749 4.029810
H 6.283987 -3.387145 2.228003
H 7.321737 -2.418699 1.145044
H 5.786357 -1.754114 1.758683
H 8.415098 -0.283112 3.963820
H 5.510194 0.245452 3.115798
H 6.600399 1.448342 3.847314
H 6.100411 0.011563 4.779609
H 8.258049 1.250182 2.075465
H 7.207400 0.136576 1.189521
H 9.863646 -0.461432 1.921779