12
H7 C3 N1 O1
N 0.899081 -0.089545 -0.040532
C 2.336224 -0.035923 -0.038088
C 3.120156 0.979578 0.823293
O 3.903309 -0.062344 1.407952
C 3.072502 -1.069052 0.827603
H 0.515836 0.663802 -0.609975
H 0.538827 0.053181 0.903537
H 2.696639 -0.042894 -1.077471
H 2.483596 1.497215 1.566878
H 3.737691 1.727924 0.297952
H 2.413039 -1.553066 1.573588
H 3.651571 -1.850476 0.307482