37
H23 C12 N1 O1
C 4.066806 1.389526 -6.061905
C 4.038028 1.233943 -4.737024
C 5.227878 1.276273 -3.823651
C 5.313169 0.043061 -2.919661
C 6.432039 0.084137 -1.874895
O 6.333837 1.210355 -1.025007
C 7.843774 0.012645 -2.478464
N 8.103149 -1.169924 -3.282180
C 8.531576 -0.895250 -4.651653
C 7.510042 -1.294434 -5.683745
C 7.086462 -0.512714 -6.677829
C 8.828624 -2.266578 -2.628038
C 8.320447 -2.553145 -1.216377
C 8.729045 -3.556805 -3.443680
H 3.151637 1.350299 -6.660590
H 5.005153 1.569058 -6.597841
H 3.070851 1.058024 -4.246444
H 5.139365 2.175556 -3.186715
H 6.148050 1.392876 -4.419265
H 5.452243 -0.860805 -3.534456
H 4.354319 -0.075321 -2.387404
H 6.293081 -0.785339 -1.215403
H 6.573325 1.993141 -1.536024
H 8.567766 0.118952 -1.649167
H 7.983232 0.909900 -3.104468
H 9.479996 -1.420956 -4.866507
H 8.759963 0.176258 -4.774233
H 7.107667 -2.310103 -5.584637
H 7.466495 0.507984 -6.801868
H 6.350451 -0.860862 -7.408513
H 9.908118 -1.999275 -2.545274
H 7.265191 -2.869796 -1.237491
H 8.412031 -1.692504 -0.539516
H 8.909849 -3.373106 -0.779432
H 7.676048 -3.870797 -3.531375
H 9.286430 -4.361573 -2.940718
H 9.142632 -3.459701 -4.457169