33
H21 C10 N1 O1
C 1.574158 0.688763 -1.578291
C 2.304106 0.454376 -0.486237
C 3.069567 1.487815 0.286641
C 4.575239 1.209416 0.322545
C 5.354671 2.238761 1.135060
C 6.853807 1.958235 1.150698
N 7.632244 2.955997 1.871252
C 7.509155 2.822085 3.307854
C 9.018789 3.000681 1.443914
C 9.247153 3.723008 0.110142
C 8.784201 5.170853 0.149245
O 10.608035 3.615061 -0.258075
H 1.046389 -0.116840 -2.097928
H 1.473853 1.698391 -1.993258
H 2.378573 -0.574984 -0.109676
H 2.691694 1.512135 1.324849
H 2.885413 2.487712 -0.141224
H 4.961609 1.183864 -0.711647
H 4.749565 0.201790 0.740116
H 4.956965 2.257814 2.163699
H 5.190929 3.247327 0.718041
H 7.204209 1.930157 0.107507
H 7.038493 0.939350 1.562804
H 6.453513 2.855735 3.613903
H 8.024189 3.653077 3.813420
H 7.938888 1.869548 3.691585
H 9.468209 1.985932 1.368776
H 9.598584 3.542407 2.211204
H 8.695088 3.196447 -0.685616
H 9.343627 5.733406 0.916703
H 7.715764 5.230415 0.400470
H 8.948708 5.656881 -0.824176
H 11.123645 4.109970 0.391119