31
H19 C10 N1 O1
C 0.899531 -0.282659 -0.270486
C 1.939980 0.160360 0.443947
C 2.035579 0.063611 1.945841
C 0.880189 -0.621378 2.658328
C 3.095001 0.873728 -0.231271
N 4.412964 0.437239 0.184839
C 5.447208 1.458228 0.035652
C 6.776056 0.686072 0.137467
C 6.353361 -0.790842 0.210825
O 6.279977 -1.259667 1.538031
C 4.964171 -0.764731 -0.443237
C 4.155620 -2.034361 -0.249361
H 0.025501 -0.748041 0.192843
H 0.888627 -0.192312 -1.361641
H 2.167418 1.088235 2.339724
H 2.983159 -0.446993 2.184020
H -0.074232 -0.098473 2.487861
H 1.057832 -0.643343 3.744158
H 0.758137 -1.662638 2.319955
H 3.010814 1.940676 0.040627
H 2.977110 0.822722 -1.334826
H 5.332114 2.236366 0.806386
H 5.371229 1.960925 -0.951648
H 7.359536 0.950058 1.030439
H 7.407870 0.870653 -0.742944
H 7.048286 -1.457196 -0.320557
H 5.566604 -0.754542 1.953162
H 5.100832 -0.598435 -1.537756
H 3.953846 -2.224281 0.814400
H 4.721721 -2.891198 -0.646817
H 3.196600 -1.990456 -0.782591