27
H17 C8 N1 O1
C 0.844266 -0.719020 0.150212
C 2.227345 -0.105399 -0.032726
C 3.377522 -1.143887 0.044597
O 4.415689 -0.965896 -0.872999
C 3.648044 -0.596863 1.462408
N 2.866167 0.577578 1.102655
C 2.257513 1.494043 2.059726
C 1.238819 0.830629 3.007510
C 3.399068 2.080821 2.900840
C 1.577974 2.615181 1.268518
H 0.599521 -1.327791 -0.735131
H 0.063851 0.049360 0.252432
H 0.801886 -1.373847 1.034437
H 2.240015 0.492275 -0.963579
H 3.065602 -2.196220 -0.019003
H 4.694581 -0.042597 -0.818157
H 4.710478 -0.413417 1.702210
H 3.212573 -1.230504 2.261202
H 1.676125 -0.047316 3.509138
H 0.333502 0.506815 2.476107
H 0.928361 1.538609 3.792344
H 3.891103 1.300455 3.503430
H 3.020048 2.847067 3.594553
H 4.159780 2.541336 2.251389
H 0.758078 2.227400 0.644137
H 2.302798 3.116374 0.607908
H 1.150921 3.366975 1.950002