22
H15 C6 N1
C 0.926850 0.110976 -0.061601
C 2.440259 -0.059653 -0.046889
C 2.911500 -1.131894 0.927511
N 4.354756 -1.286081 0.884779
C 4.919698 -2.200384 1.873144
C 4.565802 -3.649223 1.546638
C 6.430919 -2.004915 1.918746
H 0.619183 0.893902 -0.771510
H 0.545797 0.395016 0.932848
H 0.422092 -0.823446 -0.356298
H 2.918777 0.900280 0.217625
H 2.804542 -0.319089 -1.055179
H 2.434687 -2.089772 0.657850
H 2.543753 -0.884709 1.949470
H 4.774961 -0.367849 1.024882
H 4.516732 -1.978340 2.887494
H 4.923894 -3.910279 0.537073
H 3.480406 -3.827655 1.579663
H 5.033693 -4.334348 2.270270
H 6.877021 -2.222241 0.934464
H 6.892902 -2.670639 2.663202
H 6.688887 -0.967707 2.188009