39
H25 C12 N1 O1
C -0.260241 7.586733 1.007866
C 0.236660 6.279124 0.418390
C -0.381201 5.988557 -0.942564
O 1.654389 6.385157 0.372859
C 2.395111 5.277971 -0.039619
C 2.193231 4.021089 0.770097
C 2.735655 5.182396 -1.507192
C 3.775672 5.655795 -0.499942
N 4.153032 7.031941 -0.417576
C 4.761247 7.616986 -1.608510
C 6.213751 7.159022 -1.710633
C 4.593203 9.149362 -1.562321
C 5.422265 9.866457 -2.627387
C 3.120114 9.547341 -1.699606
H -1.349247 7.552523 1.159154
H -0.029993 8.428307 0.335032
H 0.219906 7.777382 1.979046
H -0.037389 5.460392 1.109944
H -0.109916 6.772193 -1.667968
H -1.477979 5.965003 -0.853085
H -0.056386 5.017110 -1.342042
H 1.197164 3.582502 0.601320
H 2.302292 4.235617 1.845094
H 2.939780 3.264085 0.491209
H 2.308230 5.951626 -2.155319
H 2.839801 4.191402 -1.958715
H 4.565597 4.934840 -0.256489
H 3.334319 7.560103 -0.129065
H 4.236046 7.267374 -2.525886
H 6.812956 7.577049 -0.884840
H 6.673763 7.454180 -2.664790
H 6.273091 6.061365 -1.647341
H 4.951413 9.476687 -0.568457
H 5.179795 9.491593 -3.636491
H 6.503608 9.742131 -2.470955
H 5.211215 10.947242 -2.616413
H 2.736736 9.266838 -2.695337
H 2.994869 10.635511 -1.587592
H 2.470910 9.067996 -0.951206