24
H15 C7 N1 O1
O 0.869048 0.124595 0.068496
C 2.275160 0.056357 0.096521
C 2.823940 0.806039 -1.102219
C 4.346881 0.808827 -1.144936
N 4.870792 1.485601 -2.327649
C 6.278156 1.195094 -2.586263
C 7.096198 2.141836 -1.680530
C 6.154626 3.348520 -1.473476
C 4.856041 2.944034 -2.216306
H 0.531893 -0.348514 0.836726
H 2.627686 -0.994266 0.068617
H 2.680320 0.502309 1.026980
H 2.436575 1.837920 -1.069688
H 2.438036 0.347968 -2.027865
H 4.699534 -0.234969 -1.174406
H 4.738984 1.240460 -0.197853
H 6.492873 1.419521 -3.645472
H 6.497713 0.129925 -2.424080
H 8.055070 2.420848 -2.141441
H 7.326283 1.653993 -0.721051
H 6.569505 4.282986 -1.878878
H 5.960377 3.519721 -0.404178
H 4.857523 3.374412 -3.231873
H 3.943158 3.296865 -1.716516