21
H12 C6 O3
C 1.066093 0.034636 -0.061041
C 2.570057 0.223435 0.025291
C 2.976380 1.513477 0.691179
O 2.223540 2.368651 1.087017
O 4.305696 1.610977 0.793829
C 4.833798 2.791325 1.388872
C 6.355884 2.731989 1.322010
C 6.881103 2.674655 -0.103465
O 6.884909 3.824925 2.039499
H 0.828634 -0.915863 -0.560430
H 0.594388 0.847492 -0.632633
H 0.608090 0.017816 0.939128
H 3.034267 0.216100 -0.974813
H 3.050479 -0.598611 0.580019
H 4.508079 2.862879 2.438207
H 4.458107 3.680707 0.854015
H 6.683114 1.829806 1.864745
H 6.564771 3.568721 -0.667384
H 6.501289 1.787466 -0.630251
H 7.980447 2.636149 -0.101100
H 6.704085 4.625690 1.530716