32
H19 C9 N1 O1 F2
C 0.592156 -0.182097 0.335829
C 2.101981 -0.063568 0.166385
C 2.729337 1.000412 1.063794
C 4.241586 1.119054 0.899417
C 4.846732 2.191145 1.798031
N 6.297470 2.276885 1.707428
C 6.796897 2.699327 0.404695
C 7.468403 1.566596 -0.368329
O 7.987104 1.997022 -1.602092
C 6.925402 2.921529 2.836631
C 8.285664 2.342532 3.154723
F 9.196643 2.639099 2.183199
F 8.757208 2.902820 4.301904
H 0.170901 -0.955807 -0.324765
H 0.088252 0.769304 0.098880
H 0.326708 -0.447639 1.372261
H 2.338385 0.167031 -0.887279
H 2.575210 -1.038691 0.376883
H 2.491789 0.772725 2.118736
H 2.259623 1.977835 0.850936
H 4.471012 1.337308 -0.157754
H 4.723370 0.153252 1.131170
H 4.586292 1.954224 2.841662
H 4.367692 3.169551 1.568526
H 7.529980 3.514118 0.518648
H 5.971400 3.111823 -0.207161
H 6.757339 0.727640 -0.491347
H 8.315951 1.185840 0.221553
H 7.245167 2.267375 -2.155771
H 6.315757 2.751151 3.735704
H 7.041569 4.019869 2.721180
H 8.263358 1.248195 3.275713