33
H21 C9 N1 O2
C 13.760582 -2.748893 4.380796
O 13.053685 -1.899569 3.526864
C 13.244154 -0.537126 3.801495
C 12.322406 0.328684 2.947501
C 12.691418 1.796347 3.130003
N 10.923909 0.130245 3.313196
C 10.271050 -1.020553 2.710113
C 8.934994 -1.322120 3.381801
C 8.335069 -2.690832 3.018430
C 6.818252 -2.657689 2.960349
O 8.671499 -3.699845 3.953348
C 10.028026 -4.013835 4.064474
H 13.547667 -3.785639 4.082835
H 13.458807 -2.618186 5.438300
H 14.854143 -2.583197 4.316583
H 14.300256 -0.257223 3.607366
H 13.034986 -0.325545 4.870209
H 12.505026 0.052513 1.886286
H 12.531878 2.108429 4.175047
H 12.067976 2.435519 2.485666
H 13.744324 1.979875 2.870728
H 10.396138 0.970329 3.083317
H 10.946799 -1.875980 2.817857
H 10.107044 -0.890940 1.617543
H 8.215810 -0.524988 3.128088
H 9.062024 -1.285511 4.477181
H 8.721253 -2.992346 2.020607
H 6.405081 -2.319038 3.924109
H 6.419230 -3.660209 2.745941
H 6.474733 -1.968862 2.174544
H 10.110516 -4.911592 4.695129
H 10.621747 -3.210531 4.538799
H 10.485677 -4.239965 3.080795