34
H23 C10 N1
C 4.404263 3.188356 7.221174
C 4.091273 2.237126 6.072237
C 4.852772 2.567639 4.790734
C 4.552848 1.610250 3.642615
C 5.295600 1.924114 2.337937
C 4.990760 0.901675 1.236290
C 3.519550 0.754163 0.868346
N 6.743644 1.993040 2.556867
C 7.317903 3.326196 2.528063
C 8.815564 3.294738 2.802373
C 9.454251 4.677557 2.791439
H 3.845039 2.922498 8.131823
H 4.143297 4.227367 6.960963
H 5.477777 3.170450 7.471182
H 3.006371 2.251453 5.866160
H 4.328014 1.201968 6.375569
H 5.936300 2.551479 4.998742
H 4.611727 3.601191 4.480890
H 3.466331 1.614914 3.450774
H 4.814474 0.580577 3.950002
H 4.934547 2.909681 1.976193
H 5.559996 1.199068 0.338587
H 5.396054 -0.078020 1.549106
H 3.071838 1.729481 0.616058
H 2.928628 0.316051 1.686949
H 3.401636 0.097646 -0.007402
H 7.219224 1.423339 1.860162
H 6.824679 3.942322 3.298572
H 7.134943 3.845484 1.560315
H 9.303877 2.654419 2.046056
H 8.983632 2.804568 3.776188
H 9.322144 5.172857 1.815703
H 10.535092 4.621645 2.992176
H 9.006136 5.330377 3.558207