31
H19 C10 N1 O1
C 0.963945 -0.228864 -0.292109
C 2.211785 0.520947 -0.698406
C 3.169815 1.063212 0.327244
C 3.593352 -0.072597 -0.571709
C 3.810171 -1.470831 -0.037977
N 5.216878 -1.746696 0.231136
C 5.810484 -0.959136 1.306451
C 5.428295 -1.479253 2.687179
O 5.760861 -2.842899 2.823365
C 5.141183 -3.657243 1.840656
C 5.572183 -5.087844 2.081450
C 5.513722 -3.156879 0.440957
H 0.122044 0.468150 -0.153777
H 1.097964 -0.773366 0.654033
H 0.666498 -0.959604 -1.061668
H 2.074902 1.150952 -1.583928
H 2.968273 0.814319 1.374922
H 3.612941 2.050977 0.173160
H 4.293251 0.185487 -1.374261
H 3.157430 -1.634902 0.843268
H 3.481575 -2.198359 -0.799491
H 5.524094 0.097066 1.204318
H 6.909036 -1.013794 1.207215
H 4.344347 -1.330832 2.869312
H 5.973775 -0.932117 3.470841
H 4.039927 -3.583503 1.961728
H 6.662166 -5.187751 1.957062
H 5.076538 -5.766534 1.371330
H 5.310982 -5.402316 3.102767
H 4.996210 -3.759684 -0.322010
H 6.600543 -3.310457 0.306149