31
H20 C8 N2 O1
C 0.943938 -0.079023 -0.078444
O 2.330093 0.033343 0.044165
C 2.794650 1.345019 -0.094892
C 4.303810 1.354253 0.060745
N 4.823883 2.697169 -0.092930
C 6.269492 2.780484 -0.027325
C 6.746991 4.210642 -0.233734
N 8.193571 4.286660 -0.168725
C 8.763545 5.615302 -0.378528
C 8.508590 6.518225 0.825929
C 10.257598 5.473385 -0.646077
H 0.674151 -1.138193 0.041063
H 0.585356 0.263514 -1.069226
H 0.409594 0.507093 0.695333
H 2.332867 2.007103 0.668600
H 2.523551 1.763492 -1.085731
H 4.741282 0.709931 -0.720710
H 4.564965 0.889069 1.035595
H 4.426463 3.292339 0.633835
H 6.691540 2.139594 -0.822507
H 6.686953 2.401497 0.930414
H 6.313073 4.842443 0.560075
H 6.333207 4.589662 -1.193574
H 8.576842 3.660384 -0.875780
H 8.303008 6.102388 -1.267363
H 8.937143 6.068164 1.736520
H 7.434578 6.682831 1.000155
H 8.971478 7.505455 0.674009
H 10.757940 4.994024 0.211267
H 10.723406 6.456025 -0.813650
H 10.444262 4.854937 -1.539071