34
H22 C10 N1 F1
C 1.195613 -0.400924 0.566727
C 2.691041 -0.100414 0.650020
C 3.445855 -0.680588 -0.543262
C 2.914619 1.412475 0.768953
N 4.305727 1.807490 0.929073
C 4.533583 3.168602 0.492195
C 4.807789 1.567376 2.273278
C 6.324862 1.429830 2.351743
C 6.810213 1.128789 3.766445
C 8.325548 0.978503 3.860240
C 8.784966 0.678866 5.268782
F 10.168156 0.550451 5.306337
H 1.010438 -1.484879 0.506088
H 0.748980 0.063970 -0.328800
H 0.655616 -0.017238 1.447219
H 3.076396 -0.582774 1.565703
H 3.063301 -0.259816 -1.489301
H 3.334469 -1.775383 -0.594139
H 4.518298 -0.444800 -0.482903
H 2.285404 1.813172 1.596502
H 2.535338 1.880777 -0.155371
H 4.238710 3.285140 -0.561898
H 5.599295 3.430044 0.565724
H 3.964188 3.916119 1.089991
H 4.363962 0.632508 2.648336
H 4.469852 2.368298 2.971485
H 6.813149 2.351881 1.994287
H 6.640617 0.623486 1.667835
H 6.327189 0.204407 4.130153
H 6.479512 1.934493 4.445708
H 8.818155 1.903546 3.516071
H 8.665322 0.166018 3.196048
H 8.348992 -0.263714 5.639065
H 8.502969 1.489028 5.961412