27
H15 C8 N1 O1 F2
C 2.936336 -0.865530 -1.205455
C 2.622868 0.170965 -0.133536
C 1.125458 0.427341 -0.054578
O 0.883849 1.357291 0.976616
N 3.287303 1.442438 -0.395702
C 4.701545 1.465082 -0.132450
C 5.392976 2.839098 -0.212501
C 6.245954 2.454895 1.017636
C 7.618382 1.961285 0.655186
F 8.389650 2.995420 0.212450
F 8.244878 1.457448 1.756807
C 5.247651 1.314149 1.317192
H 4.009368 -1.106280 -1.231644
H 2.647601 -0.490728 -2.200612
H 2.393716 -1.803742 -1.012269
H 2.928900 -0.243588 0.852403
H 0.779219 0.814453 -1.032310
H 0.602538 -0.529283 0.133288
H -0.018658 1.682071 0.890415
H 2.835422 2.142288 0.193436
H 5.207531 0.745750 -0.796176
H 4.691272 3.649098 0.036520
H 5.921291 3.099800 -1.141904
H 6.366054 3.225026 1.794694
H 7.623421 1.179795 -0.122825
H 4.496889 1.631534 2.056332
H 5.665284 0.343081 1.623656