21
H12 C6 O3
C 0.929423 0.073462 -0.060846
C 2.452922 0.061409 -0.040296
C 3.066128 0.143310 -1.435819
C 4.578646 0.134308 -1.395185
O 5.061887 0.212682 -2.739547
C 6.376252 0.237435 -2.897317
O 7.194422 0.201202 -2.013099
O 6.643990 0.309230 -4.194091
C 8.020165 0.348692 -4.549814
H 0.514634 0.011551 0.956953
H 0.531860 -0.777902 -0.636755
H 0.544381 0.996461 -0.523823
H 2.808534 -0.855770 0.460241
H 2.820743 0.904946 0.569126
H 2.726528 1.063229 -1.941115
H 2.718397 -0.705325 -2.048828
H 4.960985 -0.786849 -0.926530
H 4.968270 0.989434 -0.819863
H 8.050038 0.406683 -5.643831
H 8.540620 -0.559245 -4.211983
H 8.513245 1.231507 -4.117507