15
H9 C4 N1 O1
N 3.044982 -0.020755 -1.508723
C 2.709278 0.092878 -0.105816
C 3.074215 -1.115440 0.774985
C 4.489994 -0.767442 1.224942
C 4.358659 0.736862 1.428383
O 3.422403 1.180170 0.460413
H 2.389599 -0.656143 -1.963011
H 3.970106 -0.440344 -1.614354
H 1.629452 0.313414 -0.049560
H 2.991446 -2.062573 0.223664
H 2.401038 -1.163266 1.646304
H 5.217556 -0.987269 0.426594
H 4.811023 -1.295658 2.133392
H 5.306725 1.280369 1.289599
H 3.985615 0.962868 2.445929