25
H15 C7 N1 O2
C 1.703418 -1.120068 -0.636481
O 1.694480 0.246257 -0.306904
C 2.500350 1.033908 -1.112388
C 2.189193 2.485917 -0.794642
N 0.812240 2.795504 -1.116670
C 0.442674 4.156287 -0.871739
C 0.686062 5.153788 -1.969752
C -0.716438 4.714622 -1.642254
O 3.844999 0.738053 -0.851156
C 4.700660 0.843801 -1.956587
H 1.010059 -1.631915 0.044519
H 2.707476 -1.560774 -0.519646
H 1.366441 -1.286094 -1.676931
H 2.279737 0.830643 -2.184536
H 2.854905 3.122234 -1.400323
H 2.450747 2.658985 0.270547
H 0.203997 2.167741 -0.593472
H 0.573500 4.533561 0.155262
H 1.131249 4.767090 -2.890844
H 0.994221 6.165507 -1.693515
H -1.208367 4.035913 -2.344366
H -1.380467 5.421563 -1.138185
H 5.710304 0.565557 -1.623859
H 4.743140 1.871714 -2.361787
H 4.400881 0.162627 -2.775272