26
H17 C7 N1 O1
C 0.632107 -2.045290 0.879442
C 2.116378 -2.361548 0.724036
C 3.051756 -1.167259 0.930026
C 2.751252 -0.045437 -0.065634
O 3.640559 1.044508 0.070194
N 4.451089 -1.540303 0.779346
C 5.014606 -2.422297 1.807958
C 5.212219 -3.840556 1.273129
C 6.332208 -1.845326 2.318019
H 0.034241 -2.969175 0.858607
H 0.254988 -1.395653 0.074820
H 0.429897 -1.541126 1.838795
H 2.315381 -2.792047 -0.273238
H 2.385836 -3.141058 1.454210
H 2.856662 -0.761740 1.950465
H 2.779600 -0.456152 -1.091486
H 1.732962 0.334888 0.109794
H 4.317917 0.971477 -0.610007
H 4.979672 -0.671064 0.780784
H 4.319117 -2.473958 2.669999
H 5.931078 -3.833736 0.437323
H 4.268640 -4.264107 0.899023
H 5.599371 -4.512195 2.056316
H 7.050675 -1.734653 1.488146
H 6.788766 -2.501429 3.074433
H 6.179902 -0.853763 2.773421