30
H18 C9 N1 O1 F1
C 1.183328 0.767857 0.139442
O 2.320577 -0.029474 -0.013119
C 2.424112 -1.113981 0.891067
C 1.352405 -2.167676 0.630360
C 3.852241 -1.663136 0.757151
N 4.543715 -1.798903 2.035519
C 5.947919 -2.167797 1.869689
C 5.979038 -3.700999 1.679323
C 4.687569 -4.186665 2.377953
C 4.922933 -5.157487 3.510849
F 5.476901 -6.338909 3.032838
C 4.031639 -2.873442 2.879138
H 1.313898 1.660027 -0.490328
H 1.049922 1.099700 1.188162
H 0.252422 0.261814 -0.177916
H 2.312024 -0.723900 1.923609
H 1.398601 -2.497199 -0.420131
H 0.340276 -1.786149 0.831200
H 1.507562 -3.048127 1.271230
H 4.411759 -0.931236 0.157924
H 3.835937 -2.608813 0.174107
H 6.490940 -1.898107 2.791260
H 6.406321 -1.611876 1.039516
H 6.884193 -4.149535 2.115912
H 5.970063 -3.967660 0.612511
H 4.022570 -4.676223 1.648988
H 3.979447 -5.410618 4.021998
H 5.622865 -4.733888 4.251248
H 4.348363 -2.679577 3.919355
H 2.934469 -2.909104 2.879685