24
H14 C7 N1 O1 F1
C 2.096125 0.112424 -1.105925
C 2.521513 -0.264352 0.306498
C 3.569352 -1.402789 0.340870
O 4.447908 -1.403337 -0.761989
C 4.288982 -1.139491 1.660510
C 4.381828 0.385096 1.668089
N 3.130725 0.854179 1.055149
C 2.241189 1.523864 1.980994
C 1.128592 2.283629 1.284291
F 0.437916 3.026568 2.230875
H 1.694727 -0.765476 -1.636295
H 2.950348 0.498873 -1.680328
H 1.315056 0.885789 -1.098525
H 1.633455 -0.631552 0.859693
H 3.069621 -2.382007 0.318152
H 4.937998 -0.571864 -0.767667
H 5.260538 -1.650989 1.714691
H 3.663289 -1.485311 2.498308
H 5.255809 0.723363 1.079438
H 4.507021 0.799083 2.678845
H 2.820752 2.265610 2.552086
H 1.784537 0.825976 2.718553
H 0.403444 1.613365 0.797404
H 1.546228 2.971049 0.530961