25
H15 C7 N1 O2
C 1.145979 0.014526 0.182846
C 2.622201 0.058040 -0.190317
C 3.059326 -0.993096 -1.214778
C 2.353682 -0.829724 -2.557668
N 4.505216 -0.893888 -1.380223
C 5.117097 -1.973907 -2.113485
C 6.595204 -2.054144 -1.816149
O 7.130224 -1.551629 -0.858263
O 7.236304 -2.787002 -2.720973
C 8.627883 -3.000211 -2.510410
H 0.927714 0.727295 0.992713
H 0.851120 -0.987991 0.533883
H 0.496240 0.276149 -0.666429
H 3.227718 -0.087393 0.721586
H 2.887473 1.056053 -0.580751
H 2.780651 -1.993685 -0.809860
H 2.581711 0.157315 -2.992970
H 1.263191 -0.920066 -2.447486
H 2.669987 -1.600667 -3.276695
H 4.947870 -0.845762 -0.463551
H 4.991633 -1.861826 -3.201889
H 4.703062 -2.976620 -1.860603
H 8.972130 -3.623264 -3.343700
H 8.805536 -3.520040 -1.557644
H 9.174559 -2.046153 -2.507586