31
H19 C10 N1 O1
C 1.716028 0.742626 0.220552
C 3.112510 0.679028 -0.348552
C 3.378801 1.199519 -1.737578
C 3.541514 -0.268219 -1.445432
C 2.655564 -1.289374 -2.149222
N 2.704468 -2.678431 -1.724070
C 4.012436 -3.309244 -1.702201
C 4.683409 -3.254544 -0.328438
O 3.829663 -3.745447 0.680465
C 2.596940 -3.060875 0.713748
C 1.875788 -3.181402 -0.630501
C 0.467547 -2.613691 -0.597513
H 1.527315 1.738252 0.653293
H 1.564538 0.000530 1.020077
H 0.951146 0.573627 -0.551991
H 3.894747 0.890933 0.388981
H 4.270752 1.803237 -1.927008
H 2.500542 1.494739 -2.323045
H 4.585923 -0.587319 -1.374319
H 2.951266 -1.271130 -3.215035
H 1.610086 -0.949348 -2.131369
H 4.666158 -2.845121 -2.457515
H 3.899164 -4.374853 -1.979337
H 4.990928 -2.219011 -0.086756
H 5.586649 -3.883732 -0.320051
H 2.752797 -1.991494 0.963648
H 2.001062 -3.518218 1.518783
H 1.784917 -4.271115 -0.809176
H 0.444878 -1.559452 -0.292161
H -0.143155 -3.181598 0.120284
H -0.006692 -2.698756 -1.587141