30
H18 C9 N1 O1 F1
C 5.168974 -0.591062 3.530485
O 4.869945 -1.222988 2.322231
C 5.193611 -0.455088 1.195508
C 4.775970 -1.210818 -0.061390
N 3.331437 -1.342982 -0.034858
C 2.617771 -1.723002 -1.236187
C 1.148967 -1.322144 -1.136864
C 0.365511 -1.697780 -2.373378
F -0.966466 -1.332166 -2.224316
C 5.609766 -2.492351 -0.197815
C 5.042244 -3.855573 0.067756
C 5.447240 -3.469239 -1.330382
H 4.880890 -1.264530 4.350405
H 4.615727 0.361506 3.648797
H 6.250108 -0.368147 3.624507
H 6.281271 -0.239395 1.169777
H 4.661549 0.516553 1.223309
H 5.030522 -0.552614 -0.911687
H 3.045835 -1.902937 0.764892
H 2.670785 -2.806654 -1.465423
H 3.083355 -1.204195 -2.091714
H 1.078023 -0.235289 -0.970539
H 0.692300 -1.818299 -0.263520
H 0.397549 -2.784772 -2.554515
H 0.757944 -1.184707 -3.266826
H 6.646280 -2.349318 0.126336
H 3.971022 -3.920959 0.281108
H 5.654450 -4.580838 0.610530
H 4.660307 -3.294100 -2.067372
H 6.354972 -3.916863 -1.745116