20
H13 C6 N1
C -2.543326 -0.000756 -0.116538
C -1.082470 -0.000114 0.318592
C -0.338310 1.251234 -0.161617
C 1.137010 1.206217 0.222630
N 1.752852 -0.001767 -0.303833
C 1.136640 -1.207479 0.227381
C -0.338685 -1.253555 -0.156713
H -3.073322 0.890357 0.256479
H -3.073566 -0.890259 0.259957
H -2.625706 -0.002890 -1.216546
H -1.050335 0.002043 1.424908
H -0.806620 2.157986 0.255596
H -0.419558 1.318971 -1.261531
H 1.217018 1.268775 1.331673
H 1.663307 2.083315 -0.185747
H 2.747951 -0.001502 -0.092830
H 1.216608 -1.265681 1.336666
H 1.662685 -2.086340 -0.177514
H -0.807279 -2.158523 0.264042
H -0.419934 -1.325573 -1.256354