33
H21 C10 N1 O1
C 1.084662 0.250579 0.142681
C 2.513002 -0.130622 -0.175917
O 3.069573 -0.802619 0.923006
C 4.400977 -1.189225 0.731881
C 4.853287 -1.951935 1.966819
N 6.268861 -2.243423 1.958613
C 6.812688 -2.653449 3.242097
C 8.310760 -2.313190 3.310656
C 8.942045 -2.374010 1.911724
C 8.233345 -3.430895 1.074175
C 6.752315 -3.070641 0.842187
C 5.930772 -4.337002 0.581701
H 0.629819 0.775699 -0.710355
H 1.045309 0.914676 1.019689
H 0.482473 -0.645031 0.359584
H 3.108309 0.774558 -0.414265
H 2.546470 -0.776307 -1.077537
H 5.059133 -0.307313 0.588257
H 4.491409 -1.810759 -0.181449
H 4.212159 -2.853429 2.080810
H 4.641796 -1.311092 2.837561
H 6.654676 -3.737354 3.432707
H 6.267616 -2.126515 4.038977
H 8.812633 -3.022891 3.988552
H 8.451164 -1.309146 3.741164
H 10.019659 -2.589162 1.981568
H 8.847084 -1.395908 1.412510
H 8.298419 -4.402262 1.596225
H 8.725581 -3.571254 0.099585
H 6.703978 -2.443201 -0.065814
H 5.873594 -4.965561 1.485644
H 6.405535 -4.934050 -0.212667
H 4.903885 -4.111924 0.256318