39
H25 C12 N1 O1
C 1.874370 -1.079292 -0.913993
C 2.415548 -0.054213 -0.253463
C 3.084773 1.129855 -0.886427
C 4.552191 1.248483 -0.465321
N 5.264303 2.328244 -1.130923
C 4.785361 3.636923 -0.726932
C 6.706296 2.190264 -1.000885
C 7.528587 2.869850 -2.100033
O 7.496131 4.285480 -2.022689
C 8.969528 2.352589 -2.103455
C 9.825840 2.959975 -3.209968
C 11.319772 2.619771 -3.140144
C 11.584746 1.117006 -3.238573
C 12.089671 3.376965 -4.222152
H 1.401938 -1.913706 -0.386739
H 1.878945 -1.120357 -2.009294
H 2.388957 -0.058427 0.844621
H 2.536286 2.039705 -0.589362
H 3.032955 1.061530 -1.985292
H 5.054700 0.301603 -0.718990
H 4.607336 1.346062 0.644379
H 3.726010 3.768782 -0.990807
H 5.359501 4.415898 -1.241305
H 4.885046 3.802383 0.370450
H 6.943915 1.116766 -1.042536
H 7.071630 2.550144 -0.009460
H 7.055360 2.624126 -3.065689
H 7.898227 4.538833 -1.181279
H 8.943930 1.255021 -2.195144
H 9.424313 2.571782 -1.118253
H 9.708288 4.055077 -3.175526
H 9.429305 2.640580 -4.192125
H 11.692079 2.964532 -2.157287
H 11.180212 0.709137 -4.181053
H 11.126337 0.558796 -2.407954
H 12.665572 0.903956 -3.220175
H 11.761812 3.064454 -5.228361
H 13.173052 3.189570 -4.151673
H 11.929607 4.464144 -4.142587