33
H21 C10 N1 O1
C 1.062237 -0.096634 -0.102710
O 2.410991 0.033387 0.231498
C 2.822637 1.365920 0.366306
C 4.295437 1.401931 0.724522
C 4.801755 2.821847 0.946451
N 6.232133 2.888643 1.144923
C 6.769320 4.234618 1.189984
C 8.225538 4.019314 1.597496
C 8.927212 5.276240 2.090862
C 8.136873 2.820498 2.593885
C 8.362134 3.166748 4.062190
C 6.721020 2.247389 2.356256
H 0.831311 -1.168500 -0.185472
H 0.824532 0.387308 -1.070941
H 0.397975 0.345110 0.666598
H 2.226362 1.877287 1.151407
H 2.644283 1.923708 -0.577046
H 4.879509 0.931175 -0.083377
H 4.445348 0.792740 1.630601
H 4.256305 3.276892 1.807680
H 4.553193 3.435270 0.063598
H 6.248034 4.863370 1.951493
H 6.661012 4.740934 0.216933
H 8.756843 3.660426 0.701121
H 8.428255 5.708838 2.971905
H 8.933484 6.046444 1.303095
H 9.975095 5.074271 2.362134
H 8.889259 2.069809 2.306100
H 7.655429 3.937273 4.410485
H 9.383223 3.534175 4.245887
H 8.214048 2.274947 4.692432
H 6.068249 2.499831 3.224057
H 6.718193 1.150331 2.262238