33
H21 C10 N1 O1
C 2.985304 -0.471130 -3.749771
C 3.208958 0.114305 -2.358706
C 2.602469 -0.718035 -1.220657
O 2.193596 0.095326 -0.136673
C 3.525173 -1.818234 -0.683726
N 4.056408 -2.719525 -1.679066
C 5.405874 -2.493496 -2.208122
C 5.653756 -4.009373 -2.194271
C 4.396505 -4.101890 -1.304877
C 3.357686 -5.170321 -1.633246
C 3.914866 -6.558120 -1.322905
C 2.035439 -4.920486 -0.911697
H 3.504097 0.119833 -4.520222
H 1.911939 -0.476030 -3.999889
H 3.340083 -1.509655 -3.810492
H 2.742977 1.111861 -2.307511
H 4.287233 0.265007 -2.169099
H 1.677422 -1.190707 -1.593620
H 2.980338 0.538942 0.204603
H 2.950222 -2.398926 0.053862
H 4.350356 -1.323017 -0.121134
H 6.053855 -1.949539 -1.491853
H 5.454203 -1.974274 -3.179955
H 6.600707 -4.355527 -1.760584
H 5.507092 -4.481352 -3.176891
H 4.669758 -4.178262 -0.229985
H 3.170681 -5.101454 -2.720258
H 4.116477 -6.669239 -0.243978
H 4.857410 -6.746883 -1.861225
H 3.201872 -7.346324 -1.611368
H 2.170667 -4.930699 0.183275
H 1.296615 -5.697639 -1.164311
H 1.603773 -3.947528 -1.192776