27
H14 C8 N1 O1 F3
C 1.521010 -2.585200 -0.443495
C 2.506139 -2.316956 0.414316
C 3.066030 -0.954346 0.757092
C 2.462846 0.181448 -0.056379
N 4.518557 -0.950889 0.579217
C 5.271050 -1.706348 1.558377
C 6.753482 -1.366398 1.439419
O 6.970060 0.019987 1.592755
C 7.580997 -2.198242 2.416266
C 9.061640 -1.924104 2.372636
F 9.553211 -1.959004 1.124493
F 9.390750 -0.731135 2.886418
F 9.741295 -2.841857 3.080548
H 1.185863 -3.613742 -0.608188
H 1.005195 -1.805963 -1.012955
H 2.966087 -3.155478 0.951646
H 2.810803 -0.778274 1.828226
H 2.674779 0.050397 -1.129165
H 2.893013 1.143550 0.262718
H 1.373683 0.240107 0.082191
H 4.844235 0.013722 0.632938
H 5.144570 -2.789390 1.398860
H 4.944112 -1.498793 2.603554
H 7.074221 -1.597101 0.411480
H 6.760527 0.257761 2.506158
H 7.445999 -3.266374 2.193542
H 7.250065 -2.031105 3.453663