27
H17 C7 N1 O2
C 6.625562 -1.380786 -2.663580
O 6.256748 -0.319313 -1.828661
C 4.873159 -0.210954 -1.635635
C 4.542250 0.997467 -0.762062
O 3.161191 0.990043 -0.480654
C 4.966231 2.336665 -1.366953
N 6.402577 2.527786 -1.340169
C 6.891040 3.672525 -2.099628
C 6.468719 4.987502 -1.449709
C 8.408328 3.575381 -2.209479
H 7.721564 -1.385726 -2.742119
H 6.198323 -1.272445 -3.678796
H 6.296084 -2.354529 -2.254142
H 4.471753 -1.120131 -1.146320
H 4.350408 -0.105445 -2.610793
H 5.059362 0.880685 0.204535
H 2.690527 1.143212 -1.310074
H 4.468184 3.120623 -0.773196
H 4.541619 2.404986 -2.396874
H 6.835516 1.679483 -1.702396
H 6.473938 3.663330 -3.132865
H 6.838214 5.035298 -0.411913
H 5.374424 5.103407 -1.426865
H 6.879107 5.844530 -2.005619
H 8.868755 3.594687 -1.208213
H 8.817229 4.412175 -2.795637
H 8.709008 2.637465 -2.704134