35
H22 C10 N1 O1 F1
C 0.910840 0.181283 -0.279531
O 2.296452 0.186771 -0.107383
C 2.989221 0.733413 -1.191661
C 4.503871 0.693903 -0.945513
C 4.834165 1.448870 0.350895
C 4.955519 -0.764240 -0.836894
N 5.088322 1.321006 -2.136729
C 6.535478 1.322509 -2.264172
C 6.959728 2.084677 -3.513115
C 8.468902 2.088639 -3.730964
C 8.890023 2.852751 -4.982623
C 10.388528 2.846137 -5.180286
F 10.724956 3.550858 -6.329777
H 0.456605 -0.265555 0.616369
H 0.605609 -0.414551 -1.162005
H 0.505069 1.204413 -0.404977
H 2.675060 1.786289 -1.358630
H 2.765271 0.178529 -2.125234
H 4.315847 0.997571 1.209232
H 4.514479 2.501494 0.275397
H 5.914936 1.432988 0.559130
H 4.352059 -1.283874 -0.079423
H 6.012149 -0.845113 -0.540556
H 4.824933 -1.281250 -1.800877
H 4.763005 2.287078 -2.176867
H 6.893550 0.282951 -2.345620
H 7.054696 1.760295 -1.385140
H 6.598064 3.126541 -3.441302
H 6.453587 1.640220 -4.387152
H 8.830565 1.047325 -3.798307
H 8.965354 2.529429 -2.848376
H 8.545449 3.898763 -4.919421
H 8.412908 2.409345 -5.872856
H 10.772130 1.818404 -5.290821
H 10.905391 3.321551 -4.330320