29
H19 C8 N1 O1
C 0.824141 -0.159640 -0.008845
C 2.345614 -0.072358 -0.010758
C 2.903671 0.612306 -1.255131
C 4.422022 0.705603 -1.253371
N 4.940679 1.332211 -2.459595
O 4.539028 2.693703 -2.436021
C 6.393893 1.308753 -2.525051
C 6.924113 1.845444 -3.845995
C 8.446006 1.792753 -3.944445
C 8.978306 2.338757 -5.263913
H 0.449015 -0.653915 0.900701
H 0.456757 -0.732147 -0.876163
H 0.368444 0.842847 -0.057073
H 2.773416 -1.086988 0.071248
H 2.684097 0.473752 0.887157
H 2.484572 1.628768 -1.336718
H 2.584719 0.065645 -2.159981
H 4.855263 -0.306475 -1.208894
H 4.769404 1.248620 -0.348189
H 3.998881 2.793193 -3.229400
H 6.700643 0.257631 -2.402483
H 6.834737 1.877542 -1.678255
H 6.581911 2.885994 -3.970891
H 6.473782 1.263946 -4.669617
H 8.784936 0.750119 -3.813041
H 8.884372 2.362773 -3.106615
H 8.586233 1.765372 -6.119766
H 10.077559 2.292146 -5.306267
H 8.682406 3.390853 -5.407097