19
H12 C5 O2
C 0.889966 0.029139 -0.040171
C 2.411986 -0.006994 -0.052548
C 2.977565 -1.242976 -0.754428
O 2.481943 -1.378140 -2.069114
C 4.498270 -1.242390 -0.726058
O 4.988606 -2.457095 -1.211638
C 6.382471 -2.511690 -1.251165
H 0.515825 0.943857 0.444191
H 0.477428 -0.834545 0.506301
H 0.490282 -0.004097 -1.064425
H 2.799323 0.023357 0.979159
H 2.804574 0.894604 -0.558045
H 2.634712 -2.145883 -0.220036
H 2.779599 -0.609259 -2.571915
H 4.846841 -1.064252 0.312138
H 4.874195 -0.392840 -1.337951
H 6.675980 -3.498285 -1.637859
H 6.833990 -2.381815 -0.247345
H 6.810455 -1.734886 -1.915719