29
H17 C9 N1 O2
C 0.983046 -0.280367 -0.279645
O 2.404200 -0.311089 -0.271175
C 3.020412 0.033507 -1.404839
O 2.433690 0.341848 -2.409717
C 4.529036 0.040626 -1.219366
N 5.249818 -0.276735 -2.417691
C 6.490250 0.452512 -2.675750
C 7.533744 0.366091 -1.556642
C 6.963204 -0.217418 -3.969726
C 6.535249 -1.689013 -3.811208
C 5.497666 -1.695883 -2.665967
C 4.230217 -2.477438 -2.982596
H 0.661848 -0.580430 0.724587
H 0.580278 -0.982471 -1.024414
H 0.611348 0.730427 -0.503439
H 4.781422 -0.611278 -0.359322
H 4.767645 1.071516 -0.905693
H 6.246147 1.515320 -2.842893
H 7.857274 -0.672401 -1.380101
H 7.142687 0.766413 -0.608197
H 8.425485 0.954917 -1.821908
H 8.044445 -0.098170 -4.131071
H 6.445695 0.238971 -4.826483
H 7.386135 -2.339033 -3.560709
H 6.097208 -2.078506 -4.742407
H 5.957610 -2.160801 -1.765515
H 3.700673 -2.025794 -3.835423
H 3.541901 -2.509888 -2.123007
H 4.482148 -3.519594 -3.233836