28
H17 C9 N1 O1
C 5.997970 2.468967 -1.204310
C 5.107477 1.857647 -1.986609
C 5.457895 0.918542 -3.116003
N 4.803386 -0.384529 -3.078437
C 3.390365 -0.295795 -3.393754
C 5.067065 -1.199252 -1.893200
C 6.550790 -1.234872 -1.507446
C 7.199811 -2.128881 -2.574294
C 6.080597 -3.107772 -3.003905
C 4.826026 -2.695877 -2.210118
O 4.640256 -3.449346 -1.030646
H 5.690548 3.154415 -0.408431
H 7.075362 2.313140 -1.336218
H 4.038586 2.041674 -1.819547
H 6.550578 0.791354 -3.161779
H 5.168825 1.393642 -4.069167
H 3.249365 0.299415 -4.308570
H 2.783278 0.170590 -2.588576
H 2.962175 -1.289622 -3.585030
H 4.429676 -0.891375 -1.037289
H 6.627470 -1.704736 -0.513112
H 7.020766 -0.248814 -1.407375
H 8.091069 -2.645195 -2.188482
H 7.528086 -1.520136 -3.430301
H 6.321243 -4.160325 -2.790564
H 5.885299 -3.032888 -4.083069
H 3.909110 -2.852955 -2.792987
H 5.467718 -3.452274 -0.535291