39
H25 C12 N1 O1
C 3.168250 -1.701613 1.382271
C 2.369382 -2.807230 0.768954
C 1.969913 -1.374160 0.534015
C 2.052290 -0.780913 -0.852016
N 4.550463 -1.450007 0.919786
C 5.080740 -0.155285 1.451101
C 4.270207 1.077933 1.054971
O 4.927373 2.216081 1.501453
C 5.446924 -2.606901 1.258883
C 6.822262 -2.528866 0.605850
C 7.551390 -3.834280 0.783751
C 8.431837 -4.135115 1.751965
C 8.851765 -3.185400 2.840330
C 9.076345 -5.493504 1.818981
H 3.101007 -1.538402 2.460098
H 4.200765 2.228810 3.961660
H 4.539776 -1.375443 -0.106486
H 1.785714 -3.439910 1.440920
H 2.812184 -3.327465 -0.086771
H 1.125086 -1.007431 1.124562
H 2.925394 -1.142618 -1.418981
H 2.092744 0.317377 -0.816794
H 1.158620 -1.066646 -1.426869
H 6.101295 -0.034864 1.070825
H 5.120821 -0.256675 2.545075
H 3.243021 1.005191 1.460540
H 4.184931 1.116891 -0.044886
H 4.705042 2.295247 2.473055
H 4.919494 -3.507998 0.922751
H 5.520112 -2.636668 2.355024
H 7.403763 -1.696466 1.024447
H 6.694157 -2.326497 -0.470677
H 7.299925 -4.617272 0.057931
H 8.373896 -2.199239 2.772556
H 9.944931 -3.040351 2.823709
H 8.608790 -3.611991 3.827828
H 8.737490 -6.154357 1.007962
H 8.853710 -5.983274 2.781998
H 10.174441 -5.406062 1.759330