32
H21 C9 N1 O1
C 0.868985 -0.068291 0.212878
O 2.262848 -0.018696 0.144967
C 2.893982 -0.902139 1.024961
C 4.420508 -0.785927 0.910401
C 4.852209 -1.078518 -0.534109
C 4.841958 0.630456 1.311200
N 4.936555 -1.765694 1.874360
C 6.377549 -1.905214 1.990914
C 6.778108 -2.790547 3.175893
C 6.215643 -4.206983 3.055801
C 8.298428 -2.816996 3.323390
H 0.465736 0.657360 -0.507803
H 0.494122 0.193647 1.221707
H 0.477366 -1.072128 -0.044132
H 2.590350 -1.948207 0.803814
H 2.598946 -0.695424 2.073792
H 4.360685 -0.388444 -1.235099
H 4.576460 -2.107738 -0.818181
H 5.940817 -0.969623 -0.655518
H 4.276095 1.366715 0.723216
H 5.912638 0.808894 1.131352
H 4.636403 0.803619 2.379377
H 4.540577 -2.673724 1.634701
H 6.818653 -0.908008 2.144691
H 6.852789 -2.315835 1.072941
H 6.347001 -2.327902 4.081656
H 6.560971 -4.689946 2.125318
H 5.114387 -4.214487 3.054928
H 6.543645 -4.834482 3.899624
H 8.773726 -3.272334 2.437926
H 8.603078 -3.405485 4.203041
H 8.710563 -1.801777 3.439245