21
H12 C6 N1 O1 F1
O -1.833884 0.051739 1.031542
C -0.452594 0.061517 0.857058
C 0.174564 1.080863 -0.117498
N 0.994920 -0.003361 -0.663130
C 1.255475 -0.014279 -2.082324
C 2.095117 -1.217410 -2.491587
C 2.399813 -1.222974 -3.972113
F 3.141724 -2.349948 -4.300593
C 0.078969 -1.005544 -0.105486
H -2.059261 0.706800 1.702250
H 0.084380 0.043195 1.821190
H 0.728136 1.943427 0.289261
H -0.597657 1.441404 -0.827800
H 1.788820 0.916980 -2.339520
H 0.305482 -0.008129 -2.665535
H 1.561401 -2.149080 -2.239087
H 3.038886 -1.213982 -1.922713
H 2.985910 -0.336021 -4.263661
H 1.474656 -1.242013 -4.571190
H 0.545047 -1.911569 0.313900
H -0.721434 -1.301624 -0.815094