25
H16 C7 O2
C 1.274597 0.393824 -0.212667
O 2.498620 -0.212295 0.090926
C 2.784176 -0.309609 1.453173
C 2.147232 -1.545910 2.069817
O 4.176350 -0.351231 1.524028
C 4.736306 -0.032384 2.771835
C 6.235574 0.192327 2.614755
C 6.527119 1.337019 1.647429
C 6.875349 0.428858 3.980896
H 1.191007 0.443290 -1.307324
H 1.212768 1.423559 0.189392
H 0.407297 -0.175470 0.170848
H 2.416240 0.603042 1.976538
H 2.537234 -2.443953 1.567209
H 1.053067 -1.519324 1.957704
H 2.370425 -1.611596 3.145004
H 4.557719 -0.842190 3.505990
H 4.263474 0.885134 3.181327
H 6.655041 -0.737106 2.190113
H 6.140996 2.291453 2.044804
H 6.049931 1.159550 0.672822
H 7.610145 1.454427 1.485174
H 6.470090 1.338880 4.454806
H 7.964553 0.559676 3.887924
H 6.695882 -0.415308 4.665596