23
H14 C7 O2
C 5.549066 1.345347 2.209673
C 4.591499 0.559389 1.327338
C 3.288348 1.298749 1.027434
C 2.384654 0.517127 0.082450
O 3.563215 2.569494 0.442898
C 3.077313 3.584941 1.289178
C 2.062377 2.862777 2.169299
C 1.872299 3.436752 3.552909
O 2.628041 1.566047 2.245665
H 6.465092 0.768532 2.407175
H 5.083680 1.587378 3.176563
H 5.841866 2.289386 1.725638
H 4.330187 -0.400848 1.800902
H 5.068303 0.317661 0.363897
H 1.439582 1.058254 -0.072378
H 2.160822 -0.475774 0.499007
H 2.873674 0.387212 -0.893893
H 2.627467 4.388166 0.686575
H 3.891914 4.014733 1.902934
H 1.087144 2.815970 1.646205
H 2.831349 3.477434 4.091788
H 1.168161 2.824401 4.135005
H 1.463815 4.456372 3.485670