29
H19 C8 N1 O1
C 0.958212 0.213564 -0.133140
C 2.466683 0.033822 -0.146207
N 2.927746 -0.646227 1.051374
C 4.357055 -0.876446 1.083756
C 4.769098 -1.523237 2.394516
O 6.162950 -1.656127 2.393057
C 6.771746 -2.462280 3.402473
C 6.329945 -2.027427 4.802339
C 6.451158 -3.942432 3.170117
C 8.267287 -2.216845 3.223340
H 0.619040 0.762024 -1.024785
H 0.640822 0.772425 0.761063
H 0.444039 -0.761641 -0.123674
H 2.956924 1.022053 -0.190803
H 2.768069 -0.497668 -1.075715
H 2.444343 -1.541562 1.125882
H 4.876879 0.092905 0.994495
H 4.722418 -1.506627 0.244082
H 4.262015 -2.502897 2.493301
H 4.414769 -0.889767 3.229783
H 5.266626 -2.245931 4.983795
H 6.491372 -0.946640 4.939416
H 6.913283 -2.562336 5.566831
H 5.381389 -4.158625 3.311562
H 7.010682 -4.571881 3.878614
H 6.732542 -4.237164 2.147320
H 8.501875 -1.153120 3.381616
H 8.578251 -2.488915 2.203091
H 8.852832 -2.814538 3.937552