30
H17 C9 N1 O1 F2
C 1.232613 0.845414 -0.342700
C 2.233569 0.092803 0.130338
C 2.582043 0.059177 1.594309
C 3.071646 -0.770449 -0.781927
C 4.555592 -0.404809 -0.791653
N 5.282811 -1.247794 -1.718850
C 6.698116 -0.963743 -1.779531
C 7.385647 -1.848362 -2.821957
C 7.255943 -3.332689 -2.499589
O 6.782808 -1.533971 -4.062959
C 8.857399 -1.438816 -2.928155
F 9.517609 -1.680049 -1.765495
F 9.471810 -2.180070 -3.890878
H 0.618669 1.463256 0.320841
H 0.990391 0.866923 -1.410316
H 1.848693 0.609858 2.200777
H 3.574198 0.504326 1.777047
H 2.630415 -0.979807 1.960641
H 2.683125 -0.704319 -1.811552
H 2.983142 -1.826655 -0.471229
H 4.986602 -0.547665 0.213790
H 4.662541 0.678044 -1.023770
H 4.896310 -1.139468 -2.655901
H 7.154480 -1.152627 -0.794434
H 6.911037 0.098119 -2.032446
H 6.193200 -3.591524 -2.411163
H 7.754323 -3.573473 -1.549891
H 7.711606 -3.945621 -3.291990
H 7.059653 -2.193496 -4.711236
H 8.977190 -0.375245 -3.187844