35
H21 C11 N1 O2
C 0.846939 0.008392 0.156661
C 1.909929 -0.500422 -0.468795
C 2.794800 -1.587914 0.065553
C 4.244573 -1.129890 0.246434
C 5.142514 -2.250515 0.765768
N 6.537456 -1.855921 0.866678
C 6.726937 -0.761971 1.787432
C 6.851917 0.597516 1.123372
O 7.172238 0.804144 -0.018560
O 6.598053 1.571036 2.002477
C 6.748671 2.907348 1.542652
C 7.550261 -2.912644 0.998467
C 7.212481 -4.169003 0.201266
C 8.909350 -2.378413 0.542797
H 0.249361 0.809035 -0.289848
H 0.531472 -0.359347 1.139943
H 2.191281 -0.096996 -1.450978
H 2.777810 -2.441580 -0.635844
H 2.395473 -1.956762 1.025361
H 4.253771 -0.268265 0.935467
H 4.651474 -0.770113 -0.713244
H 5.055884 -3.088612 0.062460
H 4.742079 -2.612386 1.741665
H 7.654468 -0.886092 2.371148
H 5.924167 -0.702026 2.545688
H 6.504178 3.555662 2.392127
H 6.064132 3.115162 0.707201
H 7.781299 3.097604 1.214637
H 7.640864 -3.217825 2.065672
H 7.034671 -3.928511 -0.859785
H 6.333048 -4.700055 0.592153
H 8.062295 -4.865825 0.250497
H 8.873909 -2.127350 -0.529327
H 9.694030 -3.134365 0.700507
H 9.211484 -1.472396 1.087956