26
H17 C8 N1
C 1.075449 -0.032501 -0.130852
C 2.592568 0.007545 -0.058514
N 3.095042 -0.864338 0.987885
C 4.541888 -0.896870 1.082207
C 5.026137 -1.814932 2.195329
C 4.709978 -3.303747 2.003388
C 5.617665 -3.986680 3.027526
C 6.931928 -3.181756 2.973271
C 6.554764 -1.799448 2.385467
H 0.698076 0.657738 -0.900347
H 0.632518 0.249563 0.837097
H 0.719000 -1.044556 -0.384367
H 2.925489 1.037312 0.161155
H 3.017245 -0.241915 -1.056284
H 2.751069 -1.809054 0.817790
H 4.897957 0.130318 1.279244
H 5.024911 -1.209304 0.127135
H 4.543718 -1.487232 3.133808
H 4.990966 -3.608006 0.978129
H 3.644806 -3.546203 2.143076
H 5.763442 -5.059636 2.830964
H 5.161841 -3.899619 4.027670
H 7.665922 -3.686023 2.325905
H 7.395802 -3.097901 3.967485
H 7.042566 -1.654686 1.406899
H 6.875603 -0.963039 3.024755