27
H17 C8 N1 O1
C 0.926525 -0.118527 0.114383
N 2.319221 0.244995 -0.035725
C 2.634455 0.675155 -1.387172
C 3.032755 -0.496080 -2.280356
O 3.347644 -0.090136 -3.589257
C 2.797047 1.119782 1.029160
C 4.332911 1.103767 1.183135
C 4.694292 2.500333 1.687477
C 3.738725 3.403141 0.902280
C 2.411496 2.631786 0.918883
H 0.631904 -0.840074 -0.662839
H 0.234908 0.749913 0.039009
H 0.758250 -0.598477 1.091254
H 3.474413 1.385861 -1.376492
H 1.783161 1.215131 -1.856500
H 2.236365 -1.265572 -2.273196
H 3.935420 -0.968644 -1.861861
H 2.546496 0.270815 -3.986697
H 2.358822 0.720636 1.956917
H 4.804074 0.937215 0.200583
H 4.670719 0.291663 1.844072
H 5.755316 2.753290 1.539864
H 4.482404 2.581913 2.767855
H 4.105550 3.506014 -0.133276
H 3.654878 4.417844 1.320440
H 1.794648 2.832158 0.029290
H 1.811270 2.930528 1.792429