15
H8 C4 O3
O -1.831947 0.720421 -0.001876
C -0.519114 0.608737 -0.479519
C 0.553535 1.263536 0.393445
O 1.740268 0.557517 0.112623
C 1.430770 -0.718774 -0.436463
C -0.082654 -0.857898 -0.411980
O -0.500676 -1.418029 0.807021
H -2.026796 1.646960 0.182575
H -0.432410 0.970761 -1.520404
H 0.262675 1.167417 1.457612
H 0.703926 2.330699 0.167611
H 1.903183 -1.517513 0.157651
H 1.816139 -0.778667 -1.469187
H -0.455956 -1.443334 -1.272003
H -1.362143 -1.018841 0.996463