32
H21 C9 N1 O1
C 1.008541 -0.244455 -0.055913
C 2.511732 -0.038125 0.095350
C 2.949600 1.409849 0.362645
C 2.372962 1.951327 1.671649
C 4.479854 1.505877 0.325065
C 5.046417 2.915160 0.444176
N 6.490946 2.909295 0.294092
C 7.098403 4.219986 0.388435
C 8.626673 4.163799 0.421111
C 9.229960 3.541476 -0.830762
O 9.150792 5.455174 0.657616
H 0.781095 -1.284288 -0.337879
H 0.593605 0.410895 -0.839595
H 0.463545 -0.033830 0.877180
H 3.013078 -0.386909 -0.823857
H 2.892885 -0.680395 0.910302
H 2.555419 2.031819 -0.463881
H 2.753600 1.376417 2.533508
H 1.274323 1.891794 1.687720
H 2.637851 3.007568 1.830195
H 4.834685 1.070951 -0.626694
H 4.910601 0.881268 1.128285
H 4.810770 3.338380 1.435164
H 4.544573 3.575582 -0.298654
H 6.721366 2.492705 -0.607047
H 6.764084 4.697267 1.324476
H 6.790532 4.903412 -0.437656
H 8.920406 3.558466 1.294771
H 8.912057 4.093643 -1.732087
H 8.926208 2.489835 -0.946686
H 10.328456 3.572226 -0.776108
H 8.944581 5.996901 -0.114511