28
H15 C9 N1 O1 F2
C 2.079899 -1.367852 -3.232906
C 2.727720 -0.601984 -2.355784
C 3.069883 -1.007528 -0.947802
C 2.368237 -0.098159 0.069844
O 0.975711 -0.079373 -0.065744
N 4.506933 -0.913167 -0.727325
C 5.293021 -1.884013 -1.443090
C 6.799915 -1.925218 -1.131408
C 6.749379 -3.467279 -1.227430
C 7.201733 -3.992754 -2.560936
F 8.550825 -3.844212 -2.693157
F 6.950417 -5.330179 -2.649848
C 5.211452 -3.396469 -1.092703
H 1.847150 -1.014557 -4.241916
H 1.753766 -2.380844 -2.970737
H 3.053767 0.406970 -2.641618
H 2.691638 -2.042143 -0.785661
H 2.678128 -0.411711 1.087324
H 2.724977 0.934887 -0.071761
H 0.652909 -0.982322 0.040672
H 4.698564 -1.003319 0.270634
H 5.126905 -1.745076 -2.523340
H 7.002028 -1.605392 -0.098270
H 7.482414 -1.390527 -1.808855
H 7.289714 -4.027992 -0.449805
H 6.721641 -3.501151 -3.423147
H 4.900372 -3.545868 -0.047901
H 4.613541 -4.052606 -1.743383