33
H21 C10 N1 O1
C 1.492874 1.066207 0.448940
C 2.445237 0.206377 0.069209
C 2.961865 0.086192 -1.343886
C 2.369150 1.037913 -2.371034
C 3.085892 -0.730454 1.071087
N 4.515617 -0.480354 1.166343
C 5.318031 -1.388275 1.994544
C 4.926010 -1.346740 3.478780
C 5.222013 -2.819784 1.461630
C 6.759370 -0.887421 1.826388
O 7.641252 -1.654861 2.592340
C 8.974961 -1.261294 2.463692
H 1.005148 1.748111 -0.253193
H 1.160789 1.112708 1.491210
H 2.805205 -0.959200 -1.667381
H 4.057308 0.203760 -1.302071
H 1.281292 0.899941 -2.476254
H 2.822454 0.867424 -3.359246
H 2.549439 2.090232 -2.099461
H 2.933712 -1.764305 0.718682
H 2.555371 -0.642716 2.039680
H 4.650049 0.471778 1.506465
H 3.901926 -1.720409 3.631860
H 4.975916 -0.314032 3.861931
H 5.607535 -1.965827 4.079794
H 4.241850 -3.273303 1.671817
H 5.989592 -3.444304 1.939765
H 5.386659 -2.837366 0.372616
H 6.812045 0.179897 2.131283
H 7.028574 -0.929958 0.751489
H 9.587833 -1.918522 3.096911
H 9.131132 -0.214498 2.790527
H 9.332798 -1.347039 1.418962