18
H10 C6 N2
C 0.983450 -0.026735 0.029990
C 2.497224 -0.075893 -0.115617
C 3.001701 -1.204456 -1.023981
C 2.433109 -1.067885 -2.389934
N 2.020722 -0.954910 -3.464430
N 4.451805 -1.260133 -0.997161
C 5.197596 -1.900179 -2.057977
C 5.234589 -0.422630 -1.881826
H 0.692144 0.773255 0.726179
H 0.589061 -0.976621 0.424102
H 0.485280 0.174109 -0.931711
H 2.972873 -0.238365 0.863270
H 2.880199 0.882109 -0.503603
H 2.624856 -2.167938 -0.642091
H 4.645363 -2.281504 -2.925819
H 6.039173 -2.522580 -1.738462
H 4.703702 0.178388 -2.630891
H 6.103983 0.065759 -1.431248