19
H11 C6 N1 O1
O 1.170483 0.351560 0.901105
C 2.230148 0.087144 0.392660
C 2.951251 -1.227959 0.556774
N 4.380072 -1.074486 0.375583
C 5.090484 -2.336263 0.180754
C 5.345912 -2.913897 1.590691
C 5.339085 -1.669830 2.507757
C 5.043541 -0.495098 1.545138
H 2.755168 0.811733 -0.280553
H 2.555559 -1.875226 -0.246964
H 2.637242 -1.685210 1.517739
H 6.052382 -2.120401 -0.314204
H 4.522932 -3.009738 -0.477053
H 6.292846 -3.471219 1.634595
H 4.543754 -3.612461 1.872807
H 6.294264 -1.523900 3.032519
H 4.556848 -1.752626 3.276932
H 5.987765 -0.030624 1.216426
H 4.429542 0.298032 1.997754