35
H23 C10 N1 O1
C 6.368201 -5.016410 4.126834
C 6.290243 -4.987723 2.604282
C 6.924233 -3.755487 1.944604
C 8.425477 -3.659301 2.216456
C 6.624570 -3.762393 0.441988
N 7.094264 -2.559759 -0.225587
C 6.617693 -2.337713 -1.589862
C 5.135326 -1.921945 -1.564051
O 4.787341 -0.991487 -2.562597
C 6.918167 -3.500498 -2.567900
C 6.393547 -3.239632 -3.981128
C 8.414270 -3.810549 -2.605343
H 5.817676 -5.879517 4.532274
H 5.928301 -4.105305 4.564831
H 7.405237 -5.092639 4.488526
H 5.229974 -5.036441 2.301510
H 6.764926 -5.897758 2.194088
H 6.441463 -2.854344 2.366110
H 8.958748 -4.522371 1.781264
H 8.644538 -3.637599 3.294492
H 8.856301 -2.741388 1.787390
H 5.532725 -3.831159 0.305803
H 7.047079 -4.695865 0.008940
H 8.110607 -2.540098 -0.220880
H 7.156738 -1.445811 -1.957380
H 4.476957 -2.812054 -1.600921
H 4.954196 -1.423667 -0.599628
H 4.804706 -1.438511 -3.414659
H 6.394025 -4.394955 -2.185918
H 6.783105 -2.291793 -4.390014
H 5.292215 -3.216301 -4.022322
H 6.706839 -4.044565 -4.664322
H 8.986424 -2.936653 -2.961172
H 8.627180 -4.649510 -3.286308
H 8.804108 -4.085769 -1.613283