16
H10 C4 O2
C 0.910312 -0.096067 0.083829
C 2.425951 -0.020310 -0.026065
C 2.903904 0.670865 -1.294047
O 2.405623 1.971292 -1.421470
O 4.299296 0.644861 -1.282109
C 4.897704 1.065104 -2.480119
H 0.607273 -0.592898 1.017515
H 0.477725 -0.665222 -0.754825
H 0.461544 0.908449 0.071403
H 2.867158 -1.028937 -0.005516
H 2.851752 0.526629 0.834014
H 2.526031 0.137113 -2.189329
H 2.631451 2.451140 -0.612490
H 5.986801 0.990458 -2.354519
H 4.640334 2.109348 -2.726070
H 4.597161 0.425157 -3.331791