21
H13 C6 N1 O1
C 1.013983 -0.093273 -0.342430
N 2.431484 -0.406766 -0.330167
C 2.936288 -1.051829 0.870286
C 2.364843 -2.461431 1.062686
O 1.004217 -2.509140 1.417152
C 4.455868 -1.160102 0.844566
C 5.193585 -1.571326 -0.400045
C 5.358980 -0.179571 0.150448
H 0.795450 0.543303 -1.213122
H 0.670016 0.445845 0.566354
H 0.406475 -1.003873 -0.425311
H 2.939916 0.465022 -0.457554
H 2.661493 -0.472265 1.784875
H 2.983224 -2.983465 1.818476
H 2.467199 -3.016210 0.116065
H 0.889966 -1.986974 2.220142
H 4.854589 -1.563005 1.781158
H 4.600651 -1.670413 -1.313171
H 6.024745 -2.275551 -0.307448
H 4.923598 0.647846 -0.417561
H 6.299112 0.073400 0.647929