33
H21 C10 N1 O1
C 0.676511 -0.291629 0.375275
C 2.153416 -0.594741 0.597487
C 2.887744 -0.996445 -0.679445
C 4.366746 -1.300182 -0.464768
C 5.082725 -1.717096 -1.746811
N 6.497259 -2.024985 -1.549965
C 6.862323 -3.331857 -2.074222
C 8.302675 -3.664555 -1.736561
O 9.176404 -2.680917 -2.231760
C 8.855441 -1.419248 -1.709786
C 7.419837 -0.990483 -2.017419
C 7.161204 0.369237 -1.382149
H 0.176477 -0.005398 1.313678
H 0.146286 -1.168532 -0.031137
H 0.542520 0.536365 -0.340099
H 2.256543 -1.402747 1.342979
H 2.649652 0.288290 1.037178
H 2.785610 -0.187861 -1.426322
H 2.391710 -1.880053 -1.121276
H 4.480998 -2.111113 0.275661
H 4.865532 -0.417162 -0.032566
H 4.952152 -0.936434 -2.522095
H 4.577306 -2.611260 -2.148836
H 6.735411 -3.382193 -3.179638
H 6.206257 -4.097827 -1.632115
H 8.591490 -4.623473 -2.190903
H 8.410794 -3.754416 -0.636376
H 9.558762 -0.696484 -2.149113
H 8.997359 -1.412026 -0.608537
H 7.337457 -0.883415 -3.124747
H 7.228552 0.305942 -0.284459
H 6.171456 0.768559 -1.644175
H 7.911186 1.094606 -1.733250