30
H17 C9 N1 O1 F2
C 1.241991 0.424572 -0.180576
C 2.607507 -0.250947 -0.131229
C 3.109357 -0.613093 1.266368
C 2.480939 -1.885345 1.850554
N 1.052333 -1.826672 2.032536
C 0.408303 -3.097327 2.314606
C -1.032945 -2.702955 2.647227
C -0.917735 -1.248982 3.114055
F -1.403993 -1.062730 4.366050
F -1.633724 -0.424283 2.304033
C 0.567578 -0.912386 3.040045
O 4.503886 -0.820198 1.182878
C 5.230942 -0.460208 2.316365
H 0.979301 0.688286 -1.216202
H 1.239185 1.360649 0.401949
H 0.452537 -0.225864 0.218270
H 3.368522 0.416431 -0.565411
H 2.606596 -1.161893 -0.753590
H 2.910907 0.245026 1.941848
H 2.997562 -2.132578 2.806914
H 2.708837 -2.706020 1.151669
H 0.880444 -3.611528 3.182126
H 0.483315 -3.773902 1.450681
H -1.484757 -3.322810 3.431683
H -1.677591 -2.732723 1.759491
H 1.019578 -1.092921 4.041189
H 0.717429 0.142439 2.771112
H 6.287291 -0.696895 2.125608
H 4.919668 -1.010202 3.225523
H 5.153410 0.623865 2.532059