28
H16 C8 N1 O2 F1
C 4.255689 -0.454327 6.453869
O 3.247482 -1.200479 5.819807
C 1.985058 -1.034149 6.364757
C 0.988203 -1.695057 5.428384
N 1.002974 -1.023933 4.143966
C 0.078861 -1.445042 3.116515
C -1.401328 -1.582279 3.555305
C -1.247870 -3.121572 3.582780
C 0.022221 -2.955264 2.749581
F 1.118382 -3.715551 3.110934
O 1.950181 -1.625564 7.634725
C 1.107191 -0.992877 8.558876
H 5.196860 -0.644313 5.920375
H 4.378645 -0.750010 7.509057
H 4.038955 0.629805 6.416461
H 1.750637 0.050463 6.455503
H -0.008708 -1.605786 5.886975
H 1.239043 -2.772097 5.387134
H 1.951898 -1.054272 3.776220
H 0.245200 -0.793912 2.245157
H -2.090530 -1.238518 2.771634
H -1.673840 -1.089985 4.499732
H -2.055076 -3.731665 3.153353
H -1.011527 -3.493465 4.590463
H -0.150148 -3.112436 1.673231
H 1.185879 -1.538539 9.509418
H 0.047782 -1.004723 8.242243
H 1.403257 0.058997 8.732354