27
H15 C8 N1 O1 F2
C 0.926340 0.930697 -0.594171
O 1.957651 0.136349 -0.089952
C 2.592922 -0.637319 -1.067441
C 3.696346 -1.447646 -0.406069
N 4.370304 -2.306244 -1.366903
C 5.800539 -2.463955 -1.164509
C 6.149159 -3.395843 0.005907
C 5.460133 -4.728820 -0.175207
F 5.670148 -5.523649 0.920618
F 6.052472 -5.400806 -1.221294
C 3.979110 -4.598824 -0.446904
C 3.726872 -3.593889 -1.583114
H 0.488061 1.494957 0.241581
H 0.126791 0.324212 -1.063875
H 1.290717 1.653237 -1.350905
H 3.032502 0.001178 -1.860779
H 1.864949 -1.310658 -1.565475
H 3.260697 -2.002682 0.448625
H 4.427553 -0.744474 0.021250
H 6.260169 -1.477944 -1.006335
H 6.238625 -2.878127 -2.088259
H 5.803427 -2.962786 0.957038
H 7.234864 -3.560455 0.078259
H 3.499027 -4.260121 0.483506
H 3.571749 -5.589873 -0.697063
H 2.644553 -3.451995 -1.711809
H 4.106112 -4.020240 -2.526728