28
H18 C8 N1 Cl1
C 0.984562 -0.179206 0.027631
C 2.498730 -0.029810 -0.055815
C 3.010829 0.053484 -1.491686
C 4.522188 0.209275 -1.560028
N 5.051743 0.171579 -2.921485
Cl 4.514618 1.621949 -3.789289
C 6.511037 0.106762 -2.962857
C 7.068281 -0.156918 -4.353281
C 8.582530 -0.351650 -4.345997
C 9.155615 -0.607720 -5.734521
H 0.642479 -0.234600 1.072622
H 0.645754 -1.094550 -0.484330
H 0.473576 0.674255 -0.447010
H 2.982462 -0.879789 0.456379
H 2.810559 0.875180 0.494230
H 2.525688 0.901575 -2.002557
H 2.724794 -0.855996 -2.047439
H 4.993208 -0.646276 -1.048903
H 4.845636 1.123340 -1.021163
H 6.776154 -0.737751 -2.305923
H 6.972815 1.013999 -2.522122
H 6.812376 0.681186 -5.022331
H 6.574965 -1.053501 -4.766409
H 8.839864 -1.193162 -3.679374
H 9.061645 0.541605 -3.908535
H 8.720108 -1.514879 -6.184163
H 10.247715 -0.742908 -5.700642
H 8.943379 0.233598 -6.414172