36
H23 C11 N1 O1
C 1.433539 -2.641006 1.574317
C 2.418954 -2.125035 0.840746
C 3.156870 -0.848881 1.153046
C 2.668096 0.284474 0.231939
O 1.286561 0.489358 0.265233
N 4.596293 -0.989319 0.975264
C 5.384397 -1.314722 2.163413
C 5.088718 -2.729808 2.649145
C 6.863249 -1.108700 1.817806
C 7.827630 -1.263034 2.989795
C 9.304148 -1.013791 2.648723
C 9.571069 0.422272 2.195585
C 10.192327 -1.373968 3.839872
H 0.908959 -3.552517 1.272767
H 1.114876 -2.169456 2.511041
H 2.727481 -2.616309 -0.091261
H 2.907088 -0.545766 2.193717
H 3.228116 1.202802 0.501298
H 2.934286 0.036401 -0.809173
H 1.034186 0.678268 1.177172
H 4.965536 -0.123847 0.585299
H 5.135815 -0.617856 2.995917
H 5.319405 -3.463322 1.858872
H 4.031023 -2.848894 2.922728
H 5.685725 -2.975145 3.539667
H 6.965994 -0.095352 1.392931
H 7.136749 -1.812240 1.010930
H 7.741807 -2.281532 3.403225
H 7.529393 -0.576234 3.804286
H 9.569820 -1.687696 1.813196
H 9.277856 1.140564 2.980612
H 9.018097 0.681815 1.280133
H 10.641537 0.576748 1.985994
H 9.962728 -0.732713 4.708063
H 11.259458 -1.240903 3.600714
H 10.045263 -2.420719 4.150587