24
H15 C7 N1 O1
C 1.213369 -0.598618 -0.159434
C 2.217335 0.279370 -0.129473
C 3.073161 0.656330 -1.302143
C 4.553649 0.353329 -1.076468
N 5.347661 0.749924 -2.223384
C 6.764471 0.488231 -2.075840
C 7.510062 0.858213 -3.344331
O 8.870283 0.583555 -3.171038
C 9.644358 0.893786 -4.290726
H 0.628441 -0.829046 0.736234
H 0.935925 -1.119025 -1.083322
H 2.460354 0.774341 0.820444
H 2.966656 1.740935 -1.489098
H 2.731543 0.137594 -2.212340
H 4.682082 -0.731997 -0.919841
H 4.889176 0.841881 -0.134872
H 5.208450 1.746535 -2.390755
H 6.910964 -0.588197 -1.883354
H 7.225869 1.027073 -1.220302
H 7.353823 1.934308 -3.572619
H 7.091196 0.287028 -4.197890
H 10.690933 0.645298 -4.063228
H 9.588904 1.969937 -4.548843
H 9.333824 0.315848 -5.183527