19
H12 C5 O2
C 0.998810 0.078517 0.054839
C 2.522595 0.085505 0.071908
C 3.115566 -1.041827 0.911986
C 4.631611 -1.032406 0.927119
O 5.097069 -2.091723 1.721994
C 6.490608 -2.168382 1.790186
O 6.861484 -3.151255 2.680694
H 0.599470 0.901186 -0.558253
H 0.588331 0.189535 1.071691
H 0.609270 -0.866092 -0.358382
H 2.882234 1.055404 0.457608
H 2.902947 0.008399 -0.961614
H 2.772246 -2.017522 0.527325
H 2.752500 -0.967010 1.951530
H 5.002439 -0.062277 1.319251
H 5.021194 -1.123653 -0.107978
H 6.900771 -1.172180 2.071204
H 6.915918 -2.445711 0.805486
H 6.588006 -2.869228 3.562986