18
H10 C6 O2
O 4.126288 -0.876524 1.411495
C 4.217665 -1.177502 0.034425
C 2.821151 -1.296827 -0.516754
C 1.961573 -2.523155 -0.350524
C 2.655584 -3.832403 -0.036120
O 3.686873 -3.986121 -0.996125
C 3.383120 -3.234701 -2.156343
C 2.449233 -2.124271 -1.720273
H 5.023084 -0.798717 1.754662
H 4.780553 -2.111157 -0.133464
H 4.746097 -0.373365 -0.514479
H 2.260581 -0.358677 -0.441286
H 0.915553 -2.409927 -0.056997
H 1.926365 -4.663159 -0.094494
H 3.122160 -3.855562 0.962281
H 2.875824 -3.858029 -2.918010
H 4.334585 -2.882487 -2.587623
H 1.774710 -1.700537 -2.467750