33
H20 C10 N1 O1 F1
C 2.249135 -1.491284 -0.003352
C 3.454434 -0.703682 0.489767
C 3.223885 0.795579 0.666558
C 2.207579 1.130327 1.805098
N 0.989281 1.859527 1.533285
C 1.056491 3.282042 1.267436
C 1.151501 3.632133 -0.223400
C 0.046210 2.949888 -1.012496
F -1.179221 3.536306 -0.650401
C -0.032049 1.461778 -0.713966
C -0.074810 1.205623 0.798476
O 4.500479 1.342470 0.944871
C 4.642709 2.700586 0.660086
H 2.515212 -2.548151 -0.156978
H 1.877505 -1.099690 -0.963697
H 1.415419 -1.467367 0.714774
H 4.289180 -0.822156 -0.219306
H 3.805341 -1.111584 1.454279
H 2.853093 1.212503 -0.289692
H 2.778895 1.694643 2.561629
H 1.920028 0.184076 2.295488
H 1.902913 3.716936 1.818697
H 0.142508 3.757479 1.669957
H 2.118093 3.304097 -0.634931
H 1.086015 4.721874 -0.371071
H 0.164619 3.129493 -2.092885
H 0.849097 0.977551 -1.162374
H -0.922456 1.037220 -1.204355
H -0.051063 0.126185 1.003778
H -1.045019 1.577448 1.177911
H 5.678657 2.987218 0.893708
H 3.971236 3.341099 1.262116
H 4.455914 2.920122 -0.409499