15
H9 C4 N1 O1
C 1.081040 -0.337551 0.107153
N 2.388517 0.260421 -0.081518
C 2.973371 -0.015998 -1.362735
C 4.415251 0.457650 -1.583564
O 4.823011 -0.831880 -2.042285
C 3.563510 -1.409330 -1.690407
H 0.710556 -0.115851 1.119148
H 1.060707 -1.439085 -0.026650
H 0.363899 0.092729 -0.611148
H 3.019514 -0.055960 0.654104
H 2.287167 0.331426 -2.151165
H 4.924544 0.754133 -0.646894
H 4.575334 1.246678 -2.337201
H 3.636460 -2.073522 -0.807815
H 3.111869 -1.971320 -2.525232