22
H12 C6 O4
C 0.982785 -0.128739 -0.027723
O 2.404226 -0.145070 -0.100366
C 3.025288 -1.169414 0.483412
O 2.452779 -2.071011 1.032075
C 4.559821 -0.991525 0.402778
C 5.014033 -0.723483 -1.030179
O 4.892660 0.038672 1.312875
C 4.947780 1.374761 0.876904
O 5.079433 -2.165412 0.916665
C 6.482730 -2.266184 0.960602
H 0.658774 0.771780 -0.561451
H 0.645760 -0.085223 1.018076
H 0.557044 -1.021659 -0.507262
H 4.490141 0.134156 -1.468627
H 4.793642 -1.612146 -1.639294
H 6.095271 -0.530542 -1.067757
H 5.151564 1.983413 1.768892
H 3.995301 1.713154 0.436843
H 5.760092 1.550199 0.151435
H 6.721678 -3.104733 1.628857
H 6.945749 -1.352246 1.366108
H 6.917477 -2.481337 -0.031131