28
H18 C8 N2
C 0.455368 -0.715303 -0.028398
N 1.858368 -0.371164 -0.117950
C 2.737040 -1.492088 0.161852
C 4.239983 -1.223267 0.015850
C 4.837917 -0.271006 1.066671
C 4.708202 1.210837 0.721959
N 5.218467 1.496024 -0.607677
C 5.204342 2.910594 -0.896434
C 4.518043 0.726360 -1.625797
C 4.671125 -0.772978 -1.389227
H -0.164003 0.181588 -0.180254
H 0.162733 -1.170483 0.942359
H 0.191514 -1.438783 -0.817865
H 2.055104 0.387176 0.531291
H 2.472125 -2.300801 -0.542884
H 2.561437 -1.911347 1.179318
H 4.697598 -2.210780 0.194711
H 5.914245 -0.494246 1.158242
H 4.388517 -0.459176 2.055573
H 5.284859 1.801894 1.452193
H 3.651310 1.549989 0.824498
H 5.786837 3.461102 -0.140826
H 4.176974 3.341239 -0.908655
H 5.657565 3.104251 -1.881435
H 4.941593 0.987034 -2.609541
H 3.438633 0.988036 -1.651945
H 5.735297 -1.030003 -1.527063
H 4.105448 -1.324791 -2.157468