15
H9 C5 N1
C -1.175258 0.753386 0.073213
N -1.161491 -0.733309 0.133139
C 0.282916 -0.990322 -0.008324
C 0.748706 -0.007317 -1.112506
C 0.329988 1.026865 -0.035780
C 0.880067 0.011584 1.000054
H -1.615672 1.194430 0.983206
H -1.735851 1.134177 -0.795554
H -1.650724 -1.113331 -0.675788
H 0.540454 -2.058017 -0.009500
H 0.200952 -0.016967 -2.069282
H 1.833873 -0.025334 -1.287061
H 0.650927 2.076699 -0.064095
H 0.457849 0.019231 2.017406
H 1.977794 -0.014165 1.032852