31
H19 C9 N1 O2
C 3.681515 0.021999 2.418736
C 3.381521 0.221277 0.949954
O 4.577279 0.116750 0.219490
C 4.429813 0.298295 -1.167232
C 4.328266 1.780122 -1.599982
C 5.678759 2.070215 -2.248279
N 6.021075 0.795374 -2.861976
C 7.360787 0.684258 -3.388836
C 7.588563 1.570451 -4.601191
O 8.853577 1.281977 -5.125590
C 9.182856 2.060899 -6.236427
C 5.706944 -0.203281 -1.855285
H 2.755973 0.085763 3.010073
H 4.378484 0.792865 2.781661
H 4.136960 -0.965049 2.592203
H 2.907730 1.210123 0.791257
H 2.653909 -0.538161 0.597703
H 3.543635 -0.264602 -1.514316
H 4.116092 2.436079 -0.743952
H 3.520820 1.908957 -2.335629
H 6.428857 2.361364 -1.477641
H 5.632389 2.881191 -2.990023
H 7.528927 -0.359281 -3.700704
H 8.130522 0.917300 -2.617575
H 7.521752 2.642561 -4.326211
H 6.790901 1.378235 -5.348123
H 10.183742 1.761851 -6.579475
H 9.204553 3.141929 -5.994362
H 8.469092 1.915925 -7.071310
H 6.495245 -0.263390 -1.073004
H 5.599922 -1.203106 -2.303516