35
H22 C10 N1 O1 F1
C 0.996585 -0.035921 -0.213772
C 2.519261 -0.076156 -0.084711
C 3.157994 -0.582085 -1.378648
C 3.057997 1.296976 0.338188
C 4.556810 1.351040 0.619393
C 5.004591 2.697338 1.171370
N 6.436495 2.708203 1.430198
C 6.994649 3.973918 1.890524
C 6.776600 4.176043 3.392910
O 5.427805 4.278830 3.782499
C 8.487795 3.998802 1.549002
C 9.182735 5.316933 1.817986
F 10.459478 5.279069 1.271318
H 0.588101 -1.027533 -0.465901
H 0.688414 0.663810 -1.009446
H 0.521439 0.295098 0.723585
H 2.771304 -0.792424 0.719258
H 2.982950 0.127950 -2.205413
H 2.730194 -1.552605 -1.676796
H 4.245503 -0.719584 -1.279318
H 2.517706 1.619354 1.245995
H 2.803895 2.036025 -0.444800
H 5.124534 1.138610 -0.303532
H 4.831985 0.562962 1.342071
H 4.476141 2.905419 2.112426
H 4.704265 3.501772 0.461924
H 6.911976 2.442088 0.569133
H 6.513373 4.835007 1.369691
H 7.339543 5.067814 3.726894
H 7.193283 3.304588 3.923140
H 5.049639 5.046813 3.337185
H 8.598299 3.788295 0.472280
H 9.003330 3.188856 2.091859
H 9.293299 5.526246 2.892915
H 8.638940 6.154250 1.350463