32
H20 C9 N1 O1 F1
C 0.995764 -0.076749 0.536919
C 2.502949 -0.043394 0.316102
C 3.150149 1.252148 0.795781
C 4.660539 1.311958 0.558353
O 4.969824 1.070994 -0.804427
C 5.246639 2.626034 1.083506
N 6.690483 2.634038 1.257122
C 7.409224 2.762720 0.003159
C 7.107518 3.624442 2.237039
C 8.564168 3.482528 2.667582
C 8.875132 4.359834 3.859320
F 10.223100 4.266306 4.179542
H 0.557652 -1.022418 0.181608
H 0.495552 0.745171 -0.001226
H 0.744411 0.026817 1.605263
H 2.729048 -0.180633 -0.753192
H 2.974251 -0.894424 0.838504
H 2.955066 1.386235 1.873350
H 2.677113 2.113880 0.287015
H 5.144559 0.489984 1.112330
H 4.568950 1.781411 -1.322464
H 4.791969 2.808246 2.069001
H 4.901227 3.458309 0.424600
H 7.037611 2.020376 -0.712309
H 8.485306 2.586717 0.145837
H 7.286733 3.772178 -0.452484
H 6.468654 3.506029 3.127605
H 6.936556 4.661803 1.865117
H 9.248611 3.760911 1.851026
H 8.763363 2.429145 2.924139
H 8.296116 4.054897 4.746339
H 8.652553 5.418105 3.644484