34
H21 C10 N1 O2
C 1.116289 0.352445 0.103489
C 2.633702 0.216953 0.146265
C 3.112611 -0.965473 0.984990
C 4.631042 -1.110796 1.028347
C 5.104832 -2.288601 1.875556
C 6.622061 -2.437537 1.867947
N 7.124545 -3.426228 2.811079
C 6.691794 -4.775625 2.504587
C 8.555109 -3.345221 2.955946
C 9.076593 -3.983565 4.228381
O 8.417574 -4.354779 5.165270
O 10.408280 -4.059646 4.189973
C 11.055743 -4.585115 5.341634
H 0.804173 1.213631 -0.507653
H 0.699703 0.492347 1.114479
H 0.647411 -0.548397 -0.325335
H 3.076099 1.146568 0.545673
H 3.024023 0.112798 -0.881507
H 2.668495 -1.896492 0.588211
H 2.726961 -0.861194 2.015439
H 5.075613 -0.177077 1.417245
H 5.014583 -1.224031 -0.001834
H 4.626879 -3.209694 1.502533
H 4.769983 -2.160839 2.919735
H 7.067421 -1.465036 2.135508
H 6.961575 -2.660445 0.829223
H 5.597374 -4.859262 2.560143
H 7.106982 -5.481075 3.237511
H 7.010018 -5.104401 1.489912
H 8.864400 -2.287881 3.006908
H 9.116337 -3.783663 2.101799
H 12.130667 -4.561185 5.128590
H 10.737328 -5.620205 5.533659
H 10.838420 -3.973240 6.229437