36
H23 C11 N1 O1
C 2.368179 1.340680 3.410187
C 2.938684 0.651447 2.422723
C 3.028876 1.104629 0.990400
C 2.222844 0.172901 0.074210
O 0.875250 0.060672 0.433573
N 4.412883 1.096619 0.540857
C 5.237396 2.154423 1.097167
C 6.722155 1.994631 0.756520
C 6.948959 1.948723 -0.756233
C 7.542696 3.110904 1.433441
C 8.860559 2.667997 2.085825
C 9.831598 2.011501 1.104956
C 9.525960 3.847721 2.794577
H 2.319739 0.948648 4.430534
H 1.923109 2.326386 3.232832
H 3.385972 -0.330929 2.624938
H 2.573986 2.119233 0.918313
H 2.340936 0.526418 -0.970239
H 2.659599 -0.837767 0.123580
H 0.487228 0.943846 0.416102
H 4.423017 1.162312 -0.475679
H 5.127745 2.134046 2.193972
H 4.899036 3.165667 0.774103
H 7.037176 1.023198 1.179116
H 6.529176 2.847845 -1.239446
H 6.478206 1.064557 -1.214528
H 8.019812 1.910675 -1.003022
H 6.930827 3.585029 2.220284
H 7.754896 3.911450 0.700443
H 8.603585 1.914901 2.854004
H 10.096749 2.703490 0.287302
H 9.410144 1.100280 0.653759
H 10.765671 1.723625 1.613648
H 9.809522 4.631150 2.071072
H 10.441155 3.534939 3.322182
H 8.851183 4.306373 3.535075