33
H21 C9 N1 O2
C 8.252946 8.957077 -0.617349
O 9.336793 8.103933 -0.850712
C 9.439329 7.002776 0.039000
C 10.877569 6.909370 0.520710
C 8.983276 5.709349 -0.635296
N 7.617075 5.770128 -1.136225
C 7.532869 6.095414 -2.542030
C 6.705800 4.712157 -0.706935
C 6.404245 4.830730 0.785871
C 7.134273 3.274544 -1.108471
C 5.949415 2.324146 -1.232570
O 8.125647 2.735057 -0.250254
H 8.270370 9.742237 -1.388124
H 8.319481 9.448799 0.373348
H 7.284538 8.429139 -0.675486
H 8.777540 7.178790 0.908231
H 11.558881 6.755444 -0.331436
H 11.006096 6.069527 1.220574
H 11.173380 7.836895 1.033108
H 9.083166 4.887376 0.086539
H 9.691358 5.468951 -1.454226
H 8.153657 6.977653 -2.751194
H 6.493958 6.337570 -2.818908
H 7.878628 5.279227 -3.215213
H 5.763032 4.903852 -1.246340
H 7.311622 4.716145 1.399258
H 5.679360 4.069787 1.114300
H 5.977914 5.820721 1.004760
H 7.621954 3.341854 -2.094759
H 5.402514 2.236646 -0.278907
H 6.299380 1.320215 -1.516165
H 5.239680 2.672205 -1.998256
H 7.715250 2.570187 0.607507