39
H25 C12 N1 O1
C 2.442804 -2.933846 1.808446
C 2.433212 -1.532415 2.410593
C 3.089731 -0.454396 1.541410
O 2.352872 -0.208194 0.359904
C 4.551726 -0.738796 1.188582
N 5.371945 -0.957947 2.362753
C 6.812634 -1.011387 2.117145
C 7.374695 0.395148 1.928006
C 7.471023 -1.744060 3.288856
C 8.989444 -1.917320 3.180106
C 9.541520 -2.793111 4.272512
C 10.053851 -2.396208 5.448919
C 10.183034 -0.956927 5.870999
C 10.543712 -3.393906 6.465075
H 1.890849 -3.638482 2.448612
H 3.466222 -3.325693 1.693886
H 1.962196 -2.954078 0.816460
H 2.934743 -1.543117 3.392611
H 1.394631 -1.214404 2.597854
H 3.062508 0.490721 2.108294
H 2.406156 -0.998503 -0.191156
H 4.926003 0.136068 0.635420
H 4.590511 -1.591759 0.472887
H 5.090323 -1.835346 2.796843
H 7.030390 -1.593890 1.193841
H 7.277575 0.974346 2.861049
H 6.840301 0.938327 1.134174
H 8.436571 0.368400 1.641872
H 7.005323 -2.741869 3.378984
H 7.229615 -1.204352 4.222099
H 9.478336 -0.931647 3.190633
H 9.226937 -2.370063 2.202087
H 9.473470 -3.873871 4.090980
H 9.813710 -0.246480 5.119524
H 11.235726 -0.709760 6.090341
H 9.621653 -0.782598 6.804503
H 10.428951 -4.430870 6.116552
H 9.994941 -3.286532 7.416431
H 11.608795 -3.224303 6.699052