33
H20 C10 N1 O1 F1
C 0.867748 1.967529 -0.351415
C 2.369232 2.099617 -0.586978
C 3.086910 0.780224 -0.888515
C 2.909584 -0.244338 0.248921
O 1.653908 -0.875500 0.278870
N 4.528615 0.929409 -1.122647
C 5.055034 -0.132176 -1.969398
C 6.574477 -0.214662 -1.889862
C 7.209498 1.134411 -2.223075
C 6.566642 2.272212 -1.421982
C 6.998069 2.246183 0.033157
F 6.488874 3.358261 0.698775
C 5.039093 2.221542 -1.547216
H 0.418026 2.963363 -0.215680
H 0.636840 1.362120 0.535074
H 0.369522 1.490875 -1.211289
H 2.839345 2.567273 0.295942
H 2.523180 2.792769 -1.428320
H 2.605686 0.351759 -1.798844
H 3.723491 -0.989796 0.189284
H 3.031801 0.274089 1.214462
H 1.523751 -1.311960 -0.571282
H 4.749378 0.031503 -3.029621
H 4.617960 -1.094965 -1.666045
H 6.936793 -0.988275 -2.585072
H 6.863147 -0.536681 -0.875578
H 7.057864 1.344666 -3.295376
H 8.298936 1.108294 -2.057673
H 6.905492 3.235557 -1.838451
H 6.618834 1.353075 0.552140
H 8.096077 2.277913 0.119415
H 4.760079 2.454470 -2.600079
H 4.623053 3.016531 -0.918510