26
H17 C7 N1 O1
C 4.631950 2.449687 -2.141520
N 4.107594 1.589166 -1.104692
C 4.835969 1.685716 0.143437
C 4.398835 0.618761 1.151613
O 2.994124 0.478511 1.224682
C 2.257642 1.638703 1.491677
C 5.034628 0.812167 2.544667
C 4.516719 -0.245053 3.518528
C 6.562906 0.789330 2.484630
H 4.070731 2.301511 -3.076645
H 5.709846 2.290854 -2.362225
H 4.514664 3.506940 -1.849991
H 4.110850 0.622139 -1.423889
H 4.678987 2.693670 0.570894
H 5.931369 1.584792 -0.003073
H 4.739822 -0.361432 0.768730
H 1.210714 1.332448 1.633923
H 2.294903 2.352424 0.649721
H 2.583591 2.158377 2.411691
H 4.728550 1.804775 2.921120
H 4.817326 -1.256085 3.194169
H 3.419749 -0.229066 3.584270
H 4.925243 -0.081819 4.528126
H 6.925465 -0.132596 1.998472
H 6.987511 0.817309 3.500327
H 6.977271 1.646928 1.934607