23
H14 C7 O2
C 1.151187 0.454870 -1.289004
C 0.671421 0.075124 0.115355
C 1.870530 -0.257863 0.995573
O -0.137672 -1.103371 0.033341
C -1.514858 -0.782789 0.008349
C -1.615253 0.743314 0.040548
C -0.283540 1.157468 0.680695
C -0.361060 1.192726 2.209045
O -1.223931 2.196856 2.685297
H 1.685367 -0.394341 -1.741908
H 1.836381 1.315756 -1.252366
H 0.308695 0.714997 -1.947382
H 2.484975 -1.031311 0.509901
H 1.555473 -0.646582 1.973986
H 2.502132 0.629516 1.153132
H -2.008546 -1.238280 0.886077
H -1.987984 -1.209990 -0.892311
H -2.499680 1.090929 0.595947
H -1.699822 1.154557 -0.975615
H 0.028877 2.158349 0.344573
H -0.647858 0.196743 2.600873
H 0.630127 1.426539 2.624367
H -2.124962 1.964975 2.433838