39
H25 C12 N1 O1
C 1.129198 -0.306268 -0.475770
C 2.622979 -0.061428 -0.274135
C 3.171329 0.945036 -1.283206
C 2.891844 0.385634 1.157140
O 4.270443 0.518682 1.367947
C 4.610293 0.969968 2.649476
C 6.133320 1.058063 2.725132
N 6.688392 1.503990 3.989027
C 6.437360 2.913164 4.257918
C 7.320568 3.430689 5.385497
C 7.108103 2.596620 6.643879
C 7.293800 1.116103 6.329327
C 6.424658 0.652743 5.153863
C 6.680052 -0.821645 4.862950
H 0.923041 -0.664011 -1.496431
H 0.552839 0.622309 -0.325798
H 0.741978 -1.059681 0.228560
H 3.155262 -1.019104 -0.414905
H 2.658638 1.917125 -1.182781
H 3.023611 0.592519 -2.316227
H 4.246803 1.113209 -1.128047
H 2.464230 -0.350289 1.869240
H 2.376645 1.351605 1.349407
H 4.220548 0.274790 3.420734
H 4.149255 1.958502 2.847609
H 6.473152 1.751126 1.937984
H 6.542968 0.071035 2.461296
H 5.373287 3.100325 4.528977
H 6.631303 3.480812 3.334087
H 7.097353 4.493152 5.572620
H 8.376148 3.366437 5.070017
H 6.082663 2.762698 7.020084
H 7.794730 2.910356 7.446258
H 7.055442 0.501942 7.212523
H 8.350517 0.921085 6.073153
H 5.361160 0.759864 5.472672
H 7.695667 -0.966334 4.460062
H 5.960951 -1.245266 4.147033
H 6.595791 -1.402078 5.793887