31
H19 C10 N1 O1
C 0.765179 0.495504 -1.679883
C 2.250855 0.151230 -1.585793
C 2.688998 -1.302089 -1.366447
C 2.234126 -2.268624 -2.462566
O 2.918379 -3.499376 -2.349670
C 2.742687 -4.103375 -1.087543
C 3.144894 -3.161390 0.044570
N 2.444382 -1.881693 -0.037446
C 1.060665 -1.958194 0.424350
C 0.795446 -1.180746 1.704060
C 1.825801 -1.110996 2.794460
C 1.480179 0.121444 2.002129
H 0.647938 1.523517 -2.056759
H 0.257055 0.451711 -0.706244
H 0.228015 -0.168945 -2.374948
H 2.720569 0.766670 -0.801499
H 2.730794 0.460829 -2.529462
H 3.789611 -1.275194 -1.458065
H 2.466884 -1.866060 -3.460313
H 1.138466 -2.433632 -2.411562
H 3.361825 -5.013152 -1.075124
H 1.685833 -4.416220 -0.960460
H 4.231350 -2.975456 -0.012898
H 2.946140 -3.634512 1.018299
H 0.776928 -3.009102 0.609110
H 0.363237 -1.614005 -0.353296
H -0.245083 -1.257396 2.038286
H 2.798600 -1.568196 2.590682
H 1.491941 -1.176929 3.833651
H 2.228307 0.469094 1.285509
H 0.903021 0.912205 2.489264