35
H22 C11 N2
C 6.661229 0.356643 -0.922670
C 5.891811 0.595158 0.377848
N 5.221082 -0.547301 0.974189
C 5.944188 -1.319778 1.967527
C 7.213815 -2.050491 1.514357
C 7.830740 -2.865673 2.647273
C 9.055284 -3.704987 2.258670
C 10.210155 -2.848798 1.737717
C 9.509728 -4.565153 3.437878
C 4.196952 -1.180592 0.185574
C 3.043306 -1.769856 1.004176
C 4.714383 -2.224837 -0.750905
N 5.135620 -3.042412 -1.453258
H 7.148463 1.291065 -1.243105
H 5.991204 0.043047 -1.738742
H 7.439702 -0.411828 -0.809571
H 5.139694 1.384329 0.194450
H 6.577734 0.997883 1.140276
H 5.249165 -2.053166 2.405609
H 6.215099 -0.638664 2.794881
H 7.941591 -1.309533 1.147428
H 6.984121 -2.715458 0.665237
H 7.060263 -3.542589 3.058140
H 8.110983 -2.188098 3.476062
H 8.745196 -4.385252 1.443847
H 10.520830 -2.107570 2.494286
H 9.941113 -2.300872 0.821869
H 11.087651 -3.471638 1.501433
H 9.835533 -3.933459 4.281981
H 10.356648 -5.212773 3.160344
H 8.696065 -5.213179 3.801212
H 3.771031 -0.403723 -0.470737
H 3.360825 -2.631400 1.607914
H 2.234816 -2.102175 0.337101
H 2.653562 -0.990613 1.674032