23
H15 C6 N1 O1
C 0.995491 0.048900 -0.035234
C 2.504572 0.122434 0.027809
O 3.052152 -0.850236 -0.823305
C 4.452680 -0.871187 -0.842774
C 4.913386 -1.887768 -1.883297
N 4.373763 -1.614685 -3.211656
C 6.439240 -1.969147 -1.924023
C 6.972587 -3.066200 -2.836559
H 0.548280 0.804223 0.627924
H 0.640783 -0.943917 0.281276
H 0.639271 0.233285 -1.060405
H 2.853926 -0.038318 1.068077
H 2.853940 1.132075 -0.270435
H 4.854482 -1.131834 0.157945
H 4.852978 0.132177 -1.103997
H 4.522318 -2.872069 -1.564976
H 4.736717 -0.714018 -3.531716
H 3.366809 -1.477365 -3.122809
H 6.811937 -2.124966 -0.897961
H 6.834182 -0.989012 -2.248852
H 6.631970 -4.059552 -2.501745
H 8.073395 -3.075452 -2.847126
H 6.621820 -2.926337 -3.869542