30
H18 C9 N1 O1 F1
C 2.059509 0.033847 -0.874611
C 2.508132 -0.324553 0.536368
C 3.637279 -1.376416 0.557254
C 3.147720 -2.811542 0.438168
C 4.379572 -1.048330 1.850253
C 4.334074 0.474975 1.858296
N 3.029408 0.835396 1.285118
C 2.117906 1.447807 2.228116
C 0.936820 2.193333 1.605838
O -0.065827 1.341402 1.098405
C 0.350047 3.167891 2.614456
F -0.699576 3.867217 2.047580
H 1.757987 -0.869419 -1.429937
H 2.882452 0.518382 -1.424299
H 1.198350 0.714700 -0.847463
H 1.639782 -0.748089 1.081701
H 4.315160 -1.161854 -0.289599
H 2.483624 -3.071642 1.279225
H 3.990910 -3.520113 0.443148
H 2.586305 -2.971558 -0.495897
H 5.401389 -1.455753 1.883584
H 3.822644 -1.453477 2.713189
H 5.154013 0.878180 1.235128
H 4.456056 0.902772 2.864376
H 2.690786 2.179182 2.818484
H 1.703400 0.711642 2.958785
H 1.308117 2.771382 0.743882
H -0.306719 0.717371 1.795141
H 1.110515 3.893189 2.943974
H -0.034414 2.629237 3.498039