21
H12 C6 O3
C 4.090367 -2.699795 1.625121
O 4.043565 -1.578495 0.790204
C 4.611777 -1.796915 -0.465201
C 4.454460 -0.528791 -1.295700
C 3.008232 -0.171498 -1.564641
O 5.088044 -0.752613 -2.559703
C 6.368999 -0.446956 -2.818609
C 7.160835 0.293077 -1.772671
O 6.820304 -0.757910 -3.891549
H 3.621782 -2.430448 2.582012
H 5.130530 -3.024241 1.821786
H 3.540879 -3.558175 1.192892
H 4.119625 -2.640501 -0.991823
H 5.687762 -2.051317 -0.376549
H 4.939629 0.302604 -0.763587
H 2.508771 -0.976094 -2.126055
H 2.941774 0.759543 -2.146121
H 2.481124 -0.030331 -0.611256
H 6.725984 1.288301 -1.593918
H 8.186269 0.411400 -2.140140
H 7.176848 -0.245125 -0.814363