30
H18 C9 N1 O1 F1
C 3.017607 -1.033076 3.111056
C 2.360353 -0.135553 2.376392
C 2.923414 0.607838 1.188352
C 2.246846 0.126458 -0.106866
O 0.849190 0.210394 -0.069469
N 4.359490 0.463208 1.056656
C 5.141711 1.341562 1.909837
C 6.633585 1.090981 1.744142
C 7.493235 1.990542 2.625920
C 8.988736 1.740248 2.457030
C 9.823167 2.639743 3.339820
F 11.174868 2.377953 3.151650
H 2.532875 -1.549332 3.944886
H 4.062094 -1.280021 2.896705
H 1.311372 0.086341 2.600932
H 2.634866 1.678050 1.310481
H 2.667536 0.700126 -0.956604
H 2.506408 -0.932923 -0.264438
H 0.608262 1.142695 -0.008730
H 4.628093 0.626437 0.087390
H 4.856309 1.158038 2.959277
H 4.923306 2.414594 1.715167
H 6.910413 1.243683 0.685190
H 6.844079 0.031599 1.969949
H 7.213200 1.839412 3.683489
H 7.270900 3.048016 2.397832
H 9.281853 1.904207 1.406287
H 9.224410 0.689827 2.697394
H 9.593677 2.477374 4.405928
H 9.649973 3.702829 3.104117