29
H16 C8 N1 O1 F3
C 1.340512 -8.198749 2.166551
C 0.682377 -7.044034 1.418824
C 0.575048 -7.124204 -0.124985
C 1.899021 -7.532773 -0.771747
N 0.092458 -5.861884 -0.681471
C 1.031608 -4.764909 -0.802672
C 0.262819 -3.480726 -1.105378
C 1.183959 -2.283986 -1.273971
O -0.721407 -3.248155 -0.111363
C -0.496142 -8.146591 -0.539812
F -0.614439 -8.249414 -1.868178
F -0.239615 -9.384651 -0.087802
F -1.708330 -7.811391 -0.068634
H 1.385438 -7.964653 3.241125
H 2.373110 -8.370068 1.826700
H 0.786605 -9.141043 2.056666
H 1.252047 -6.124262 1.626308
H -0.330195 -6.869625 1.818965
H 1.844484 -7.429250 -1.864522
H 2.149367 -8.575465 -0.534618
H 2.715648 -6.898609 -0.399658
H -0.692083 -5.528000 -0.122532
H 1.744658 -4.952616 -1.620849
H 1.635691 -4.594507 0.115773
H -0.305904 -3.641102 -2.036103
H 1.766631 -2.106264 -0.354418
H 0.597334 -1.379046 -1.490107
H 1.893169 -2.443459 -2.100161
H -0.259560 -3.031194 0.709377