30
H19 C9 N1 O1
C 11.707509 -4.970320 7.435584
C 10.912229 -5.336745 6.210406
C 9.619117 -6.052416 6.495630
C 11.351453 -5.028838 4.978891
C 10.664623 -5.301376 3.669513
C 9.870430 -4.095733 3.166186
N 9.303341 -4.348735 1.853792
C 8.533100 -3.250713 1.292385
C 8.384335 -3.459073 -0.220012
C 7.392526 -4.563428 -0.575110
O 9.659553 -3.724260 -0.758461
H 11.966077 -5.871041 8.018336
H 11.116852 -4.323710 8.106839
H 12.639722 -4.444337 7.182541
H 8.967956 -5.423647 7.126125
H 9.807080 -6.976986 7.067440
H 9.056431 -6.318046 5.590927
H 12.301100 -4.482953 4.905040
H 9.986623 -6.166963 3.746604
H 11.415740 -5.558888 2.904496
H 10.537175 -3.219114 3.094248
H 9.096111 -3.837046 3.919368
H 8.726599 -5.188279 1.897619
H 9.103665 -2.322520 1.458563
H 7.541671 -3.113733 1.768051
H 8.023929 -2.513869 -0.661472
H 7.702946 -5.530161 -0.145590
H 7.340460 -4.685424 -1.667584
H 6.382599 -4.327376 -0.204249
H 10.096337 -4.226972 -0.048676