32
H19 C8 N1 O4
C 2.028097 0.521053 0.411059
O 3.262912 0.102635 -0.098165
C 3.232354 -0.919143 -1.046536
C 2.612982 -0.507536 -2.388735
N 1.169641 -0.633959 -2.412945
C 0.582285 -0.430491 -3.719190
C -0.921541 -0.624842 -3.641188
O -1.450432 0.256631 -2.682557
C -2.191460 -0.331891 -1.641961
O -1.442882 -0.368630 -4.899078
C -2.818547 -0.618069 -5.023136
O 4.569452 -1.266077 -1.218721
C 4.791187 -2.610370 -1.542234
H 2.223218 1.076360 1.339681
H 1.365098 -0.331649 0.651096
H 1.489984 1.202177 -0.274710
H 2.651928 -1.784787 -0.650025
H 3.020391 -1.187019 -3.155056
H 2.982733 0.510323 -2.635986
H 0.741693 0.037108 -1.778980
H 0.994087 -1.164015 -4.430772
H 0.774407 0.578760 -4.141263
H -1.150848 -1.667477 -3.332951
H -2.581789 0.481654 -1.014456
H -1.564646 -0.987790 -1.011357
H -3.046491 -0.921116 -2.019336
H -3.092155 -0.462815 -6.075832
H -3.419287 0.067504 -4.400766
H -3.070632 -1.658617 -4.743199
H 5.876372 -2.753813 -1.637624
H 4.322029 -2.901532 -2.500882
H 4.413589 -3.290068 -0.754985