34
H21 C11 N1 O1
C 1.090191 -1.482735 1.898654
C 2.324889 -2.196656 1.358304
C 3.257049 -1.320425 0.512675
C 2.543655 -0.698077 -0.687825
C 4.493005 -2.091635 0.011385
N 5.383522 -2.684193 0.997793
C 5.097392 -4.005035 1.468506
C 5.065978 -5.126744 0.470645
C 6.195301 -5.038588 1.456112
C 5.944247 -1.751911 1.932516
C 5.309273 -1.431843 3.308819
O 6.590297 -1.496157 3.938227
C 7.173671 -2.111334 2.786828
H 0.526022 -2.136104 2.582273
H 0.401039 -1.176429 1.096627
H 1.370830 -0.576787 2.461421
H 2.017005 -3.073322 0.759234
H 2.895041 -2.595883 2.210413
H 3.614445 -0.493947 1.155443
H 2.107098 -1.478780 -1.334346
H 3.242460 -0.108640 -1.302745
H 1.730273 -0.024034 -0.381249
H 5.090094 -1.395121 -0.605426
H 4.156154 -2.892171 -0.667127
H 4.381468 -4.103626 2.297735
H 5.290502 -4.877091 -0.569763
H 4.309441 -5.904502 0.601394
H 7.164739 -4.715220 1.068367
H 6.239251 -5.756636 2.279442
H 6.132693 -0.811809 1.392085
H 4.626710 -2.216898 3.683923
H 4.823044 -0.449315 3.430721
H 7.324549 -3.193594 2.935692
H 8.134013 -1.652849 2.497997