20
H12 C6 O2
C 2.504395 0.211332 -1.393251
C 2.475003 -0.001528 0.112750
C 3.323850 -1.204438 0.568437
O 3.990072 -0.808575 1.749678
C 4.327668 0.536754 1.556529
C 3.072105 1.190516 0.943876
C 2.104238 1.632449 2.029963
O 3.382761 2.339684 0.193095
H 2.099475 -0.670425 -1.914445
H 3.532053 0.363388 -1.763803
H 1.903348 1.084128 -1.687319
H 1.429992 -0.154521 0.422664
H 4.065394 -1.464322 -0.214465
H 2.732071 -2.104466 0.787762
H 5.175605 0.639362 0.844649
H 4.627822 0.977941 2.518133
H 1.880194 0.791093 2.702102
H 1.160591 1.984471 1.585299
H 2.539680 2.451795 2.622509
H 4.031761 2.101602 -0.479751