27
H15 C8 N1 O1 F2
C 0.763419 0.012730 -0.340766
C 2.269141 0.018573 -0.061699
C 3.021226 0.927384 -1.056025
C 4.523553 0.945180 -0.817217
O 2.718901 0.558429 -2.387191
N 2.621922 0.346876 1.309995
C 2.191430 1.623908 1.862800
C 2.624476 1.502568 3.317534
C 2.267438 0.061962 3.621586
F 0.974571 -0.013315 4.070346
F 3.025003 -0.476074 4.614977
C 2.405350 -0.694907 2.300443
H 0.565383 -0.353403 -1.356987
H 0.338662 1.026298 -0.263115
H 0.228395 -0.637589 0.368378
H 2.654321 -1.004217 -0.233751
H 2.630067 1.954283 -0.952251
H 4.938011 -0.075182 -0.887621
H 4.767535 1.338485 0.178832
H 5.016770 1.570842 -1.576163
H 3.084515 -0.323439 -2.533248
H 1.094390 1.781405 1.805778
H 2.676692 2.467058 1.349107
H 2.127388 2.196365 4.007757
H 3.714730 1.615179 3.404195
H 1.481087 -1.281602 2.142025
H 3.251032 -1.400168 2.345390