20
H13 C5 N1 O1
C 4.736225 2.686709 -2.551039
N 4.427168 2.489722 -1.151692
C 4.827500 1.191243 -0.654720
C 4.445040 0.960776 0.812204
C 2.947235 0.809990 1.021386
O 4.870087 1.990537 1.675853
C 6.236856 2.273174 1.648085
H 4.371095 3.669955 -2.884817
H 4.302482 1.916522 -3.224941
H 5.828595 2.670968 -2.703089
H 3.428809 2.622372 -1.004775
H 5.922456 1.103387 -0.764343
H 4.401544 0.345918 -1.240710
H 4.936277 0.009361 1.110007
H 2.412094 1.734007 0.751139
H 2.734026 0.598103 2.079503
H 2.550157 -0.016287 0.413657
H 6.459477 2.930891 2.501482
H 6.538975 2.798729 0.723506
H 6.855720 1.359413 1.748683