36
H23 C11 N1 O1
C 1.222893 -0.279948 -0.205066
C 2.445569 -0.528959 0.264254
C 3.187838 0.335457 1.243381
N 4.540908 0.637389 0.800400
C 4.540950 1.470754 -0.387106
C 5.368789 1.164059 1.872563
C 6.875607 0.964767 1.687122
O 7.414285 1.759644 0.644225
C 7.623539 1.199027 3.002027
C 9.126916 0.967242 2.891189
C 9.940255 1.357035 4.131856
C 9.529453 0.566879 5.374944
C 11.436045 1.197894 3.859617
H 0.722411 -0.969165 -0.891815
H 0.672726 0.622680 0.084405
H 2.978422 -1.434935 -0.052293
H 3.259726 -0.217418 2.195638
H 2.597334 1.256496 1.452515
H 3.971370 0.987184 -1.194827
H 5.568354 1.630622 -0.733922
H 4.080657 2.468446 -0.202223
H 5.087799 0.641743 2.799421
H 5.173196 2.247722 2.054829
H 7.033609 -0.078145 1.364370
H 7.276076 2.685403 0.884323
H 7.188173 0.539972 3.769968
H 7.430839 2.236505 3.336362
H 9.501215 1.538001 2.026094
H 9.313614 -0.098120 2.658701
H 9.745788 2.427240 4.332576
H 9.650862 -0.517274 5.207243
H 8.480145 0.747278 5.654494
H 10.151638 0.841611 6.241727
H 11.687909 0.142678 3.657945
H 12.039505 1.525662 4.721115
H 11.749785 1.788254 2.983872