19
H11 C6 N1 O1
O -1.887433 0.323111 1.236617
C -0.518643 0.164668 1.036672
C 0.210814 1.111922 0.061013
N 0.869711 -0.062963 -0.515241
C 1.202808 -0.075675 -1.906519
C 1.052742 -1.321700 -2.719574
C 0.159206 -0.136710 -2.998837
C -0.146857 -0.952179 0.053951
H -2.018736 1.002255 1.908469
H 0.028556 0.067368 1.990304
H 0.882642 1.885352 0.468992
H -0.520992 1.583456 -0.625990
H 2.081622 0.540623 -2.127787
H 0.591916 -2.189679 -2.238090
H 1.839740 -1.570709 -3.436259
H -0.890208 -0.221999 -2.699960
H 0.327740 0.444586 -3.909430
H 0.223788 -1.908834 0.455963
H -1.007265 -1.148723 -0.616626