38
H25 C11 N1 O1
C 0.546753 2.152047 -1.372938
C 2.029628 2.495316 -1.295301
C 2.739172 2.423028 -2.645231
C 4.224353 2.766849 -2.576433
C 4.930712 2.684448 -3.926916
C 6.404913 3.064361 -3.837717
N 7.158626 2.816474 -5.057456
C 6.705283 3.627922 -6.169212
C 8.593771 2.924610 -4.856422
C 9.412951 2.066405 -5.830685
C 9.187820 0.583718 -5.605724
O 10.790457 2.336647 -5.656563
C 11.276552 3.408320 -6.411609
H 0.064929 2.213563 -0.384702
H 0.393662 1.129685 -1.755783
H 0.012712 2.841002 -2.047764
H 2.529907 1.812027 -0.586599
H 2.152249 3.509585 -0.876142
H 2.239268 3.105990 -3.355981
H 2.619468 1.407938 -3.065625
H 4.722411 2.088705 -1.860319
H 4.342827 3.784970 -2.163430
H 4.406452 3.339635 -4.642547
H 4.856772 1.658354 -4.328018
H 6.866885 2.468174 -3.034008
H 6.487465 4.131295 -3.521952
H 5.666279 3.389248 -6.437885
H 7.319049 3.436778 -7.060882
H 6.760101 4.718271 -5.949997
H 8.837888 2.579575 -3.839096
H 8.936731 3.980332 -4.921541
H 9.125265 2.316171 -6.870537
H 9.547282 0.292102 -4.605740
H 9.726809 -0.013262 -6.356412
H 8.115145 0.352764 -5.669750
H 12.337796 3.546257 -6.157997
H 10.749821 4.358397 -6.201512
H 11.202406 3.213439 -7.499444