29
H16 C8 N1 O1 F3
C 0.762373 -0.783919 1.234967
C 2.278522 -0.639263 1.216062
C 2.725159 0.814837 1.107279
N 4.171306 0.974430 1.078228
C 4.660416 2.068394 0.258525
C 4.784081 1.659640 -1.200208
O 5.216830 2.763740 -1.941889
C 5.378711 2.489537 -3.301238
C 4.835139 0.791355 2.341214
C 5.938465 -0.241155 2.251023
F 5.478763 -1.452360 1.910887
F 6.868734 0.086396 1.339950
F 6.572332 -0.376644 3.425421
H 0.462632 -1.840439 1.306861
H 0.309063 -0.369827 0.319549
H 0.319945 -0.253072 2.093670
H 2.707911 -1.197192 0.367150
H 2.703377 -1.091682 2.127574
H 2.271747 1.407480 1.931430
H 2.320575 1.234250 0.172921
H 5.656811 2.372221 0.610744
H 4.010180 2.963727 0.330691
H 3.809676 1.289305 -1.581122
H 5.500353 0.816724 -1.279498
H 5.719866 3.408972 -3.798388
H 4.430696 2.166780 -3.775371
H 6.131798 1.696351 -3.477598
H 4.136247 0.429594 3.110274
H 5.291912 1.717077 2.735254