27
H17 C9 N1
C 0.355106 1.054937 0.003940
C 1.015807 -0.334285 0.143317
C -0.348229 -0.997329 -0.166794
C -0.466101 -1.511193 -1.592819
N -1.804445 -1.993964 -1.879601
C -1.973786 -2.461850 -3.235203
C -1.347851 -3.825235 -3.603125
C -2.628303 -4.146151 -4.404024
C -3.352235 -3.037811 -3.609964
C -1.030059 0.375660 0.078389
H 0.545969 1.513975 -0.977656
H 0.587123 1.797473 0.781878
H 1.353261 -0.537830 1.170364
H 1.842042 -0.569131 -0.546778
H -0.656217 -1.800567 0.521300
H 0.244340 -2.345751 -1.730405
H -0.142021 -0.712584 -2.298968
H -2.474536 -1.244292 -1.707063
H -1.664884 -1.703206 -3.986987
H -1.266437 -4.453768 -2.702224
H -0.385158 -3.829042 -4.135745
H -3.029833 -5.167484 -4.332635
H -2.522459 -3.885484 -5.468042
H -3.845988 -3.441706 -2.712257
H -4.056346 -2.383681 -4.145750
H -1.478564 0.444963 1.080501
H -1.783695 0.695546 -0.659637