30
H17 C9 N1 O1 F2
C 6.596824 -1.137203 -2.686467
O 6.228284 -0.162953 -1.759090
C 4.846097 -0.072312 -1.574122
C 4.519004 1.042524 -0.583923
C 3.046788 0.949652 -0.164181
N 4.960548 2.335506 -1.091263
C 4.191206 2.983971 -2.131056
C 3.126169 3.963266 -1.603500
C 3.733925 4.923205 -0.607234
F 2.753910 5.701041 -0.047102
F 4.550616 5.808069 -1.276609
C 4.536812 4.237272 0.473531
C 5.551102 3.273915 -0.164771
H 7.693759 -1.139109 -2.764841
H 6.176112 -0.935436 -3.691887
H 6.267946 -2.151293 -2.382418
H 4.443326 -1.030785 -1.186284
H 4.332002 0.113891 -2.540959
H 5.136273 0.844526 0.307161
H 2.371990 1.062953 -1.027938
H 2.794007 1.725283 0.572498
H 2.836663 -0.029101 0.294253
H 3.708087 2.229655 -2.768274
H 4.879961 3.549503 -2.784812
H 2.317972 3.423099 -1.091692
H 2.682544 4.543669 -2.426973
H 3.836068 3.690236 1.121221
H 5.041361 5.004282 1.080940
H 6.088154 2.725966 0.622068
H 6.304026 3.881218 -0.700554