34
H21 C10 N1 O2
C 2.818171 -1.176505 -2.063403
C 1.685877 -2.048479 -1.533559
C 2.011945 -2.786060 -0.231250
C 3.003163 -3.956609 -0.387191
C 3.860257 -3.938902 0.895456
C 3.222256 -2.845206 1.752730
N 2.646284 -1.940465 0.775784
C 1.826339 -0.885903 1.316380
C 2.651638 0.252393 1.902676
O 3.445972 0.862929 0.920091
C 4.797511 0.487578 0.906908
O 1.756602 1.178779 2.410755
C 2.356244 2.226547 3.127589
H 2.553296 -0.743402 -3.040602
H 3.749335 -1.750394 -2.197269
H 3.032945 -0.351760 -1.367708
H 1.399919 -2.807367 -2.281484
H 0.787904 -1.424952 -1.387679
H 1.056790 -3.195146 0.172254
H 3.631365 -3.817269 -1.279658
H 2.461430 -4.904170 -0.519572
H 4.902403 -3.675409 0.661241
H 3.875678 -4.907035 1.415767
H 3.947027 -2.330541 2.402924
H 2.434155 -3.274832 2.413225
H 1.125516 -1.255265 2.097099
H 1.217184 -0.443504 0.514173
H 3.316149 -0.117059 2.715150
H 5.308634 1.116493 0.163947
H 4.928511 -0.570259 0.623111
H 5.277168 0.653316 1.890398
H 1.553479 2.871779 3.509985
H 3.024110 2.829826 2.490037
H 2.942874 1.846192 3.985583