33
H21 C10 N1 O1
C 1.251885 0.509001 0.077544
C 2.341745 -0.243735 -0.109159
C 2.940824 -0.494867 -1.463843
C 3.049944 -0.908809 1.051452
N 4.410697 -0.427851 1.223166
C 4.481132 0.964586 1.664441
C 4.904987 1.934469 0.569085
C 5.269756 -1.333086 1.966608
C 6.752248 -1.117840 1.679269
C 7.648753 -2.084272 2.445240
C 9.129385 -1.879289 2.156169
O 9.955997 -2.802328 2.823318
H 0.732185 0.984044 -0.760997
H 0.837868 0.670762 1.078329
H 2.457108 0.103323 -2.249265
H 2.847931 -1.561257 -1.731715
H 4.017919 -0.267358 -1.451623
H 3.099422 -1.990926 0.842942
H 2.442288 -0.784322 1.974176
H 5.188250 1.044007 2.507420
H 3.501069 1.279664 2.070397
H 5.889685 1.656806 0.161456
H 4.973388 2.961569 0.962472
H 4.182205 1.939096 -0.261029
H 5.006943 -2.364103 1.679939
H 5.095043 -1.263219 3.064707
H 7.036494 -0.081578 1.931554
H 6.915819 -1.229608 0.593460
H 7.384510 -3.126937 2.198130
H 7.479102 -1.965412 3.531208
H 9.412051 -0.834953 2.398463
H 9.318241 -2.013431 1.078334
H 9.826733 -2.678235 3.770920