26
H15 C7 N1 O1 F2
C 4.566349 0.700503 3.666978
O 4.259735 1.075790 2.351377
C 4.984232 0.464951 1.298835
C 6.491190 0.635193 1.437785
C 4.561752 -0.998168 1.032870
C 3.044323 -1.136994 1.035038
N 5.162997 -1.955092 1.966906
C 6.244515 -2.750857 1.436922
C 6.909066 -3.522503 2.547276
F 6.013091 -4.377629 3.121811
F 7.914163 -4.288335 2.046230
H 3.867984 1.239384 4.324660
H 5.593185 0.985611 3.962744
H 4.451959 -0.381405 3.843607
H 4.662231 1.032123 0.409055
H 6.900155 0.025667 2.257031
H 6.739169 1.690335 1.629507
H 6.992082 0.330792 0.506237
H 4.917154 -1.222906 0.008092
H 2.635898 -0.959506 2.041815
H 2.747878 -2.146833 0.711342
H 2.581037 -0.408460 0.353303
H 4.445321 -2.572023 2.338392
H 7.011504 -2.098799 0.994490
H 5.936795 -3.476207 0.654554
H 7.317205 -2.877974 3.341391