20
H12 C7 O1
C -1.640775 0.022913 0.688168
C -1.115115 1.271696 -0.030353
C 0.370792 1.115492 -0.365782
C 1.236976 0.783227 0.866522
C 1.228490 -0.761575 0.892948
C 0.358845 -1.126226 -0.327718
C -1.128579 -1.255178 0.012738
O 0.533906 -0.020908 -1.206397
H -2.741519 0.029322 0.719879
H -1.306524 0.039080 1.739523
H -1.274132 2.173341 0.582835
H -1.658907 1.421408 -0.978074
H 0.736726 1.993739 -0.917222
H 0.832332 1.231320 1.785864
H 2.256308 1.170561 0.728706
H 0.818607 -1.173371 1.826838
H 2.243528 -1.164578 0.769142
H 0.715373 -2.026576 -0.848817
H -1.296873 -2.133524 0.656508
H -1.674318 -1.431523 -0.929259