23
H12 C6 N1 O1 F3
C 0.910836 -0.177078 -0.025109
C 2.420394 -0.016019 0.097639
C 2.965525 -0.508894 1.431415
N 4.410344 -0.376181 1.495740
C 4.984361 -0.800172 2.754070
C 6.495087 -0.792717 2.647265
O 7.025039 -1.163806 3.929259
C 8.299650 -1.521526 3.981659
F 8.555609 -2.647247 3.297814
F 9.127379 -0.587024 3.491999
F 8.627896 -1.735677 5.248842
H 0.547315 0.191830 -0.996275
H 0.382275 0.383249 0.763160
H 0.613470 -1.234705 0.062562
H 2.691170 1.047397 -0.028092
H 2.930205 -0.563536 -0.712796
H 2.709178 -1.575731 1.559942
H 2.453419 0.031160 2.258529
H 4.659125 0.598505 1.326965
H 4.650347 -1.827743 2.973001
H 4.678889 -0.173595 3.618504
H 6.867668 0.210136 2.384368
H 6.827230 -1.507516 1.879717