16
H9 C5 N1 O1
C 0.986009 -0.060770 0.026839
O 2.380424 -0.143436 0.045192
C 2.855308 -1.439424 0.269112
C 4.372302 -1.411120 0.262349
C 4.953127 -2.808283 0.497458
C 6.413184 -2.820398 0.498600
N 7.569567 -2.820452 0.498199
H 0.708797 0.987263 -0.155588
H 0.538549 -0.378920 0.989029
H 0.543848 -0.684477 -0.774900
H 2.484935 -2.134029 -0.513531
H 2.486925 -1.830680 1.240474
H 4.723906 -0.721456 1.045135
H 4.720899 -1.017411 -0.704882
H 4.616229 -3.509861 -0.282221
H 4.617521 -3.215865 1.464406