29
H17 C9 N1 O2
C 1.503889 0.639739 0.959696
C 2.346921 0.067945 0.091094
C 2.603930 0.651145 -1.272616
C 3.088152 -1.203092 0.432165
C 4.609639 -1.029023 0.439009
N 5.312248 -2.177387 0.991805
C 5.161716 -3.374730 0.187790
C 6.697585 -1.878581 1.250330
C 7.350966 -2.827387 2.235767
O 6.794163 -3.657371 2.907284
O 8.665143 -2.602350 2.284663
C 9.417077 -3.380581 3.207071
H 0.958542 1.555282 0.707981
H 1.327680 0.209419 1.950901
H 1.937647 1.499408 -1.485797
H 2.462390 -0.111489 -2.056485
H 3.643914 1.006121 -1.363228
H 2.804682 -1.976095 -0.302894
H 2.778707 -1.566424 1.424695
H 4.852607 -0.152993 1.062197
H 4.968085 -0.797090 -0.589029
H 4.108078 -3.683350 0.136173
H 5.719116 -4.205329 0.641799
H 5.530848 -3.237117 -0.852992
H 6.784593 -0.875414 1.699594
H 7.327550 -1.855332 0.334151
H 10.458699 -3.053911 3.108458
H 9.339198 -4.452251 2.972332
H 9.070725 -3.213633 4.237615