28
H18 C8 N1 F1
C 1.004829 -0.033207 0.185653
C 2.505373 0.001514 -0.080869
C 2.798386 0.509671 -1.490424
N 3.142156 0.846988 0.925318
C 4.590001 0.752432 0.991854
C 5.117850 1.592475 2.148336
C 6.637574 1.632433 2.303698
C 7.241230 0.281027 2.647018
C 7.340283 2.289692 1.127764
F 6.869792 2.466650 3.422779
H 0.489055 -0.673986 -0.545170
H 0.578706 0.981196 0.119746
H 0.789678 -0.428512 1.191736
H 2.888032 -1.042132 -0.014477
H 2.461764 1.554178 -1.595966
H 2.272949 -0.103175 -2.238874
H 3.871703 0.471372 -1.730298
H 2.764883 0.594922 1.838240
H 5.016328 1.124815 0.046726
H 4.935785 -0.298673 1.096548
H 4.694833 1.216012 3.095782
H 4.757912 2.626757 2.024665
H 7.154994 -0.414337 1.799844
H 6.731248 -0.162734 3.515393
H 8.308856 0.395797 2.887418
H 7.263757 1.666494 0.225256
H 8.407689 2.427385 1.356485
H 6.897104 3.273378 0.911211