22
H13 C6 N1 O2
C 0.826468 0.451003 0.002237
O 2.220536 0.432025 0.079550
C 2.845805 0.955270 -1.056816
C 4.349351 0.866957 -0.872230
N 5.048244 1.403430 -2.012722
C 5.057274 0.641419 -3.266137
C 6.506881 1.114936 -3.492610
O 7.447157 0.244519 -4.025004
C 6.511604 1.428622 -1.982995
H 0.426142 0.026200 0.933940
H 0.449702 -0.152127 -0.847436
H 0.430911 1.479568 -0.111659
H 2.556194 2.013002 -1.223565
H 2.540351 0.392542 -1.963906
H 4.626012 -0.193750 -0.675867
H 4.632824 1.446849 0.021438
H 4.287645 0.911328 -4.007215
H 5.029009 -0.457612 -3.100712
H 6.540367 2.034044 -4.095119
H 7.431778 -0.570179 -3.507129
H 6.972150 2.366333 -1.630919
H 6.946532 0.578281 -1.414673