33
H21 C10 N1 O1
C 2.620882 2.070810 -0.244822
C 2.958710 0.585747 -0.190574
C 2.911220 -0.006619 1.216740
C 3.905793 0.634508 2.208165
C 4.267000 -0.493685 3.172756
C 4.386409 -1.691653 2.232166
C 3.201713 -1.537881 1.263784
N 2.046267 -2.276035 1.766798
C 0.932284 -2.334147 0.842230
C -0.242809 -3.061054 1.467609
O -1.302684 -3.083608 0.555193
C -2.435589 -3.740717 1.038521
H 2.629379 2.446178 -1.280016
H 3.341577 2.673432 0.330587
H 1.618809 2.264036 0.172601
H 3.965402 0.418116 -0.614901
H 2.258545 0.027193 -0.835684
H 1.893271 0.137820 1.617591
H 3.493631 1.523525 2.709071
H 4.813757 0.957110 1.667489
H 3.443264 -0.661106 3.886758
H 5.181130 -0.298298 3.753946
H 4.384272 -2.667509 2.743128
H 5.330599 -1.620157 1.667928
H 3.482032 -1.895840 0.250143
H 2.341906 -3.229186 1.974734
H 1.191054 -2.826071 -0.120455
H 0.608933 -1.310643 0.591424
H -0.534184 -2.548406 2.407105
H 0.055604 -4.094287 1.746673
H -3.211069 -3.704226 0.259935
H -2.835768 -3.260615 1.953326
H -2.229581 -4.803023 1.277061