26
H15 C9 N1 O1
C 1.139865 -0.142410 -0.276339
C 2.490892 -0.214383 -0.276064
C 3.301049 0.899992 0.323934
C 4.153145 1.782234 -0.549848
C 2.926470 2.338825 0.119683
N 3.231981 -1.253886 -0.828378
C 2.562732 -2.445999 -1.325017
C 2.447005 -3.489299 -0.219767
O 3.719354 -3.809936 0.299245
C 4.404444 -2.676827 0.782380
C 4.543095 -1.607124 -0.295774
H 0.653888 0.755757 0.107633
H 0.491955 -0.937068 -0.649171
H 3.728028 0.659865 1.304340
H 4.104440 1.611050 -1.629056
H 5.137122 2.079905 -0.178085
H 2.061698 2.560692 -0.510851
H 3.061706 3.021201 0.962595
H 3.173741 -2.863857 -2.143127
H 1.580013 -2.199284 -1.745294
H 2.009804 -4.421651 -0.606040
H 1.788190 -3.106675 0.585475
H 5.394925 -3.016386 1.119905
H 3.871080 -2.248687 1.656053
H 5.155674 -2.006098 -1.122166
H 5.060486 -0.727301 0.102631