30
H17 C9 N1 O1 F2
C 0.726280 0.580203 -0.291707
O 1.971315 -0.032148 -0.128134
C 2.505561 -0.632377 -1.287891
C 2.936571 0.384481 -2.335020
C 3.674582 -1.492410 -0.803321
N 4.244384 -2.310122 -1.859815
C 5.679360 -2.522597 -1.778419
C 6.081984 -3.533049 -0.693596
C 5.334246 -4.830971 -0.895944
F 5.596933 -5.694454 0.134601
F 5.822816 -5.459003 -2.020024
C 3.842609 -4.639465 -1.046133
C 3.542902 -3.562163 -2.101384
H 0.362309 0.872315 0.704202
H -0.015448 -0.107115 -0.744440
H 0.772270 1.490857 -0.917662
H 1.736921 -1.297920 -1.734083
H 3.626366 1.119433 -1.888962
H 2.080374 0.924937 -2.765362
H 3.458113 -0.132356 -3.153305
H 3.316147 -2.083304 0.062655
H 4.454010 -0.815652 -0.417854
H 6.182986 -1.561968 -1.599517
H 6.032038 -2.893969 -2.755393
H 5.824821 -3.147031 0.304681
H 7.163476 -3.735369 -0.715224
H 3.445355 -4.341215 -0.064309
H 3.383039 -5.600982 -1.319913
H 2.459717 -3.380189 -2.141546
H 3.838413 -3.942678 -3.093201