21
H14 C5 N2
C 0.992205 -0.152237 0.064301
C 2.511800 -0.048436 0.062703
C 3.018043 1.315225 0.514984
N 4.467698 1.368949 0.532616
C 5.005944 2.650981 0.939711
C 6.527822 2.634743 0.957021
N 7.052964 3.918519 1.399032
H 0.658422 -1.146735 -0.269102
H 0.538601 0.593935 -0.608237
H 0.581316 0.016566 1.073004
H 2.896054 -0.253422 -0.952456
H 2.948087 -0.819276 0.720004
H 2.650328 1.520352 1.536704
H 2.571232 2.103846 -0.132169
H 4.814940 1.145957 -0.400295
H 4.644701 2.885450 1.956107
H 4.660716 3.488082 0.290305
H 6.889726 2.326284 -0.046857
H 6.858520 1.851637 1.658903
H 6.871954 4.623331 0.683445
H 8.068035 3.866649 1.471715