31
H19 C10 N1 O1
C 0.864163 -0.338867 -0.762165
O 1.843802 0.152946 0.110187
C 2.523171 -0.749843 0.962368
C 3.148398 -1.965558 0.262926
C 2.205478 -3.161476 0.110542
C 1.469909 -3.445417 1.413140
N 0.764976 -2.264875 1.885393
C -0.157645 -2.556431 2.969223
C -1.582873 -2.827611 2.510797
C -2.280139 -1.860696 1.597410
C -1.915837 -3.233508 1.101409
C 1.686703 -1.179265 2.172563
H 0.358209 0.533595 -1.202886
H 0.110322 -0.959341 -0.250834
H 1.294805 -0.926831 -1.594456
H 3.347064 -0.137286 1.360960
H 4.005012 -2.280278 0.882812
H 3.564427 -1.652751 -0.708061
H 2.781355 -4.052761 -0.185005
H 1.465905 -2.984316 -0.684685
H 2.197172 -3.797948 2.182874
H 0.746822 -4.261633 1.268248
H -0.181549 -1.695944 3.657498
H 0.202781 -3.414476 3.573626
H -2.207066 -3.273972 3.292096
H -1.687943 -1.021262 1.219313
H -3.333358 -1.632943 1.783568
H -1.096364 -3.297224 0.380964
H -2.717701 -3.961479 0.950110
H 2.393694 -1.458643 2.989259
H 1.119207 -0.302966 2.520493