26
H15 C7 N1 O1 F2
C 2.990082 0.909717 1.130619
C 2.400142 -0.037502 0.092530
O 0.988583 0.027402 0.107275
C 2.871040 -1.498132 0.248225
C 2.293519 -2.365749 -0.863344
N 4.328572 -1.542107 0.254902
C 4.913051 -2.849850 0.448013
C 6.427908 -2.760055 0.439556
C 7.060424 -2.249712 -0.825692
F 6.817985 -1.958524 1.489835
F 6.923411 -4.002751 0.731554
H 4.075300 1.040577 1.006987
H 2.796787 0.542572 2.153256
H 2.523211 1.900133 1.026640
H 2.701528 0.303291 -0.912826
H 0.695408 -0.224248 0.992456
H 2.457135 -1.860701 1.218773
H 2.772511 -2.120229 -1.825547
H 1.215103 -2.179101 -0.951231
H 2.435476 -3.439019 -0.670048
H 4.673035 -0.940809 1.000388
H 4.625415 -3.528096 -0.368120
H 4.618926 -3.336499 1.401504
H 6.663360 -1.254302 -1.060562
H 6.827027 -2.929637 -1.656158
H 8.150161 -2.193871 -0.695174