35
H22 C10 N1 O1 F1
C 1.021493 -0.016659 0.159188
C 2.541364 -0.108653 0.023705
C 2.934085 -1.295725 -0.856603
C 3.115364 1.218638 -0.490004
C 4.638500 1.288673 -0.548077
C 5.155817 2.665914 -0.940928
N 6.606784 2.699413 -0.972461
C 7.157335 3.978470 -1.368467
C 8.671985 3.951297 -1.291312
O 9.168794 5.206870 -1.666325
C 10.561570 5.294302 -1.635843
C 10.941622 6.698294 -2.055062
F 12.319357 6.817374 -2.033960
H 0.598285 -0.944540 0.575911
H 0.549407 0.153159 -0.823632
H 0.725220 0.814203 0.819360
H 2.960630 -0.282370 1.032155
H 2.584947 -1.147051 -1.893074
H 2.483286 -2.229356 -0.483924
H 4.023743 -1.447680 -0.888239
H 2.748118 2.032363 0.160383
H 2.699376 1.421634 -1.494687
H 5.024649 0.549253 -1.271082
H 5.065770 1.017114 0.432988
H 4.807565 3.413064 -0.205450
H 4.703979 2.962832 -1.913857
H 6.937208 1.981337 -1.617112
H 6.784621 4.756790 -0.681042
H 6.856830 4.291831 -2.391648
H 9.071288 3.160668 -1.960078
H 8.985857 3.691545 -0.260902
H 11.029206 4.562958 -2.325204
H 10.958730 5.091161 -0.621181
H 10.511291 7.439247 -1.363187
H 10.583694 6.909180 -3.075067