32
H21 C9 N1 O1
C 0.835949 0.259917 -0.038032
C 2.352958 0.116112 -0.061403
C 3.013059 0.898218 -1.193141
C 4.529396 0.761870 -1.220325
N 5.099519 1.485184 -2.343925
C 6.554142 1.550846 -2.374621
C 7.179707 0.172881 -2.556752
C 6.951210 2.484135 -3.513414
O 8.336467 2.667554 -3.511952
C 8.803083 3.469624 -4.565289
C 10.306507 3.598160 -4.467347
H 0.388736 -0.315859 0.787070
H 0.387212 -0.100021 -0.978261
H 0.537021 1.313213 0.089480
H 2.620653 -0.950961 -0.154152
H 2.769731 0.451628 0.904343
H 2.747480 1.967651 -1.101846
H 2.612333 0.562273 -2.165455
H 4.788245 -0.306853 -1.306573
H 4.946728 1.101811 -0.245821
H 4.736206 2.437872 -2.322383
H 6.963050 1.990984 -1.437383
H 6.735416 -0.333051 -3.429955
H 7.032226 -0.467542 -1.674680
H 8.261452 0.274408 -2.722035
H 6.431097 3.457776 -3.392156
H 6.606108 2.052731 -4.476242
H 8.328283 4.471221 -4.523122
H 8.516932 3.025025 -5.540230
H 10.596047 4.058450 -3.510283
H 10.689466 4.227618 -5.284297
H 10.787475 2.610416 -4.536419