32
H21 C9 N1 O1
C 1.276306 0.025295 -0.653265
C 2.440525 -0.358726 0.255099
C 3.051592 0.791565 1.096827
O 3.022101 2.012019 0.370913
C 2.368555 0.963405 2.464305
C 0.872590 1.258439 2.461589
C 4.540842 0.461820 1.318303
N 5.254766 1.340637 2.228417
C 6.412575 2.050080 1.691153
C 5.982749 3.181447 0.763322
C 7.249690 2.578850 2.849984
H 0.922283 -0.853981 -1.213249
H 1.587624 0.782111 -1.388859
H 0.415722 0.428652 -0.099856
H 3.237120 -0.778706 -0.383456
H 2.137708 -1.171722 0.936261
H 2.111543 2.325700 0.337286
H 2.908288 1.776476 2.973378
H 2.553630 0.049605 3.054559
H 0.618395 2.131123 1.836644
H 0.529851 1.490822 3.481650
H 0.278862 0.403503 2.104238
H 5.021016 0.466391 0.323051
H 4.590006 -0.580962 1.677603
H 5.540300 0.819106 3.051255
H 7.053933 1.357997 1.100513
H 5.410425 3.937636 1.325480
H 5.331854 2.813986 -0.041815
H 6.861903 3.669062 0.312846
H 6.652436 3.263919 3.473965
H 8.129891 3.126832 2.481502
H 7.607652 1.757200 3.491658