36
H23 C11 N1 O1
C 1.115489 0.287505 0.522504
C 2.553672 0.063330 0.135204
C 2.823425 0.165626 -1.342137
C 3.483906 -0.205577 1.065251
C 4.961286 -0.412943 0.881099
N 5.393341 -1.707578 1.408037
C 4.811589 -2.786476 0.633378
C 6.837318 -1.873043 1.633087
C 7.504087 -0.582826 2.108172
C 7.154456 -3.059551 2.639011
C 6.112874 -3.133671 3.754654
C 7.307882 -4.401134 1.922616
O 8.440162 -2.869830 3.225377
H 0.771710 1.282616 0.191908
H 0.962220 0.213921 1.609098
H 0.458953 -0.449194 0.028813
H 2.638667 1.193280 -1.698902
H 2.130913 -0.487057 -1.899557
H 3.849332 -0.109182 -1.619615
H 3.157596 -0.278040 2.111016
H 5.454583 0.384495 1.450399
H 5.263799 -0.273194 -0.178063
H 3.786169 -2.522198 0.341297
H 4.740291 -3.718278 1.210496
H 5.382377 -3.001743 -0.296666
H 7.330874 -2.144355 0.671495
H 7.053624 -0.201655 3.039962
H 7.446990 0.208687 1.349988
H 8.569297 -0.769563 2.286020
H 5.117321 -3.401328 3.377893
H 6.022029 -2.163220 4.269773
H 6.423977 -3.888923 4.493024
H 6.391208 -4.732968 1.423317
H 7.600084 -5.170401 2.653444
H 8.105692 -4.330809 1.167192
H 8.367516 -2.176950 3.891752