36
H23 C11 N1 O1
C 2.123696 -0.614924 -1.845769
C 2.704560 -0.009749 -0.807990
C 3.362512 1.337358 -0.842278
C 4.846195 1.280010 -0.472728
C 5.506689 2.658906 -0.413526
O 4.809305 3.519666 0.469856
C 6.994663 2.539691 -0.078045
N 7.764322 3.759912 -0.255577
C 7.679726 4.652434 0.882768
C 9.140669 3.506357 -0.655208
C 9.310013 3.131530 -2.132742
C 8.831800 4.256794 -3.046916
C 10.763994 2.759159 -2.416287
H 1.664962 -1.603618 -1.748017
H 2.081576 -0.141786 -2.833641
H 2.725814 -0.526081 0.161555
H 2.856821 2.009394 -0.128748
H 3.245706 1.788848 -1.841880
H 5.384820 0.654038 -1.203146
H 4.966639 0.786435 0.509947
H 5.425296 3.137701 -1.403738
H 4.856887 3.129289 1.352638
H 7.407777 1.765235 -0.740502
H 7.097627 2.142185 0.958921
H 6.628120 4.858302 1.117392
H 8.173433 5.609416 0.653118
H 8.159802 4.232751 1.796171
H 9.606978 2.720410 -0.018864
H 9.720051 4.427447 -0.473054
H 8.690790 2.239740 -2.336995
H 9.459032 5.156089 -2.920099
H 7.794169 4.537780 -2.814525
H 8.880607 3.960933 -4.106917
H 11.436047 3.609830 -2.210627
H 10.903468 2.472788 -3.470551
H 11.094695 1.913478 -1.792173