28
H17 C8 N1 O2
C 6.662085 7.166143 -3.917516
C 6.095771 5.769427 -4.136721
C 7.008650 4.886895 -4.982505
C 6.396149 3.529866 -5.283348
O 5.211317 3.400105 -5.560558
N 7.263008 2.488653 -5.250056
C 6.877883 1.113568 -5.458900
C 7.194267 0.248876 -4.233270
C 6.395774 0.659226 -3.010535
O 8.562734 0.334033 -3.885042
C 9.445520 -0.316895 -4.755038
H 5.983978 7.780382 -3.305265
H 6.814334 7.689176 -4.875753
H 7.635523 7.128776 -3.401858
H 5.113730 5.830205 -4.630971
H 5.921381 5.280463 -3.162924
H 7.991588 4.767141 -4.499366
H 7.194401 5.374586 -5.956182
H 8.214349 2.657392 -4.943801
H 7.385900 0.706511 -6.348964
H 5.798964 1.092306 -5.661513
H 6.947123 -0.798983 -4.498113
H 6.624871 1.699324 -2.731321
H 6.644820 0.010566 -2.158197
H 5.316689 0.581919 -3.208364
H 10.442394 -0.302029 -4.291383
H 9.522701 0.176731 -5.741863
H 9.154688 -1.371764 -4.922501