30
H17 C9 N1 O1 F2
C 3.230411 -0.603343 1.238475
C 2.503065 -0.873590 -0.072875
O 1.829089 -2.117701 -0.030637
C 3.414436 -0.806646 -1.299919
C 4.063626 0.555301 -1.516676
N 4.702576 0.702371 -2.821585
C 4.901077 2.088748 -3.199425
C 3.735009 2.621664 -4.000508
F 2.592035 2.658697 -3.256755
F 3.989523 3.904531 -4.377822
C 5.877683 -0.107743 -2.971766
C 5.742296 -1.508866 -3.498843
C 6.347442 -0.434111 -4.358371
H 3.629553 0.421215 1.281606
H 4.074201 -1.303202 1.366067
H 2.540468 -0.736864 2.085233
H 1.704985 -0.120543 -0.192504
H 2.498847 -2.803131 0.085879
H 2.808542 -1.054690 -2.186110
H 4.183628 -1.592671 -1.204483
H 4.794633 0.762899 -0.705840
H 3.283237 1.325775 -1.436942
H 5.781711 2.174773 -3.851352
H 5.068357 2.760755 -2.334472
H 3.529598 2.022134 -4.901015
H 6.665681 0.049205 -2.216085
H 4.734108 -1.841871 -3.755324
H 6.394771 -2.280675 -3.082321
H 5.742118 -0.055110 -5.186574
H 7.424034 -0.451020 -4.545175