32
H21 C9 N1 O1
C 1.196331 -0.713857 -0.012168
C 2.524596 -0.011674 0.159890
O 3.109204 0.190737 -1.099677
C 4.347839 0.837422 -1.048267
C 4.879401 1.001668 -2.459451
N 6.169143 1.662349 -2.442032
C 6.726233 1.991922 -3.758280
C 6.617882 3.495761 -4.042602
C 5.208579 4.060255 -3.918652
C 8.171593 1.486895 -3.842599
C 8.868666 1.718208 -5.177607
H 0.722446 -0.880034 0.966671
H 1.332825 -1.690357 -0.501635
H 0.514085 -0.109595 -0.629543
H 3.197805 -0.615314 0.802788
H 2.381859 0.959301 0.677084
H 5.070580 0.253153 -0.439386
H 4.260463 1.833564 -0.568166
H 4.162983 1.612692 -3.030321
H 4.903616 0.004327 -2.948905
H 6.827789 1.076463 -1.933375
H 6.148528 1.459694 -4.542707
H 6.997295 3.696844 -5.057971
H 7.289700 4.026199 -3.343639
H 4.512634 3.562085 -4.613689
H 5.192608 5.137190 -4.147837
H 4.818366 3.930467 -2.897450
H 8.159875 0.405043 -3.624086
H 8.753966 1.960417 -3.031153
H 8.272588 1.316655 -6.013516
H 9.848088 1.216032 -5.196545
H 9.045752 2.786329 -5.374864