26
H16 C8 N2
C 0.949031 0.069905 0.138296
C 2.472429 0.035885 0.028220
C 2.929620 -1.102204 -0.884829
C 2.999135 1.396509 -0.435389
N 4.448558 1.467173 -0.449077
C 4.966742 2.777968 -0.786064
C 6.489400 2.781707 -0.764557
C 7.054690 4.167991 -1.089375
C 8.514543 4.202207 -1.080665
N 9.670918 4.217248 -1.071739
H 0.556738 -0.885349 0.520868
H 0.485546 0.249257 -0.846676
H 0.610985 0.868394 0.817946
H 2.890742 -0.144291 1.034620
H 2.593522 -0.933379 -1.922409
H 2.513150 -2.065722 -0.551033
H 4.025708 -1.209903 -0.895365
H 2.628634 2.173031 0.256441
H 2.552578 1.633750 -1.428778
H 4.811727 0.794205 -1.122778
H 4.590435 3.505524 -0.045438
H 4.613553 3.139370 -1.777487
H 6.871110 2.051269 -1.497001
H 6.837318 2.456264 0.228128
H 6.700344 4.914838 -0.361213
H 6.720836 4.504503 -2.083887