33
H21 C10 N1 O1
C 0.875202 -0.206620 0.152882
O 2.197716 0.099159 -0.170597
C 2.729422 -0.725872 -1.170957
C 4.163404 -0.321252 -1.450907
C 4.817119 -1.172350 -2.533620
C 6.265377 -0.769393 -2.799187
N 6.901054 -1.577771 -3.827635
C 6.545601 -1.148821 -5.164678
C 8.324969 -1.775460 -3.679211
C 9.319048 -0.608302 -3.406999
C 10.137642 -1.593413 -2.545341
C 8.888225 -2.495195 -2.437093
H 0.544661 0.487601 0.939022
H 0.768062 -1.241707 0.534248
H 0.197212 -0.096747 -0.716927
H 2.124014 -0.648583 -2.098851
H 2.688830 -1.790379 -0.857191
H 4.739183 -0.394869 -0.512325
H 4.176859 0.741790 -1.746514
H 4.227440 -1.094788 -3.462902
H 4.801333 -2.236500 -2.242103
H 6.825964 -0.879565 -1.858662
H 6.305544 0.313091 -3.052038
H 5.452549 -1.102064 -5.280572
H 6.925416 -1.865207 -5.909723
H 6.949445 -0.144739 -5.422253
H 8.667470 -2.317760 -4.575426
H 8.858693 0.175857 -2.786130
H 9.812546 -0.134677 -4.269254
H 10.565392 -1.210505 -1.607356
H 10.939701 -2.074695 -3.125589
H 8.309962 -2.266399 -1.529230
H 9.019477 -3.586014 -2.502932