32
H20 C9 N1 O1 F1
C 0.975683 0.140640 -0.182584
O 2.364711 0.140995 -0.040114
C 3.034211 0.719845 -1.122187
C 4.553837 0.671997 -0.910326
C 4.913346 1.387955 0.400305
C 5.005438 -0.789172 -0.854998
N 5.112681 1.333806 -2.095218
C 6.556668 1.343482 -2.250787
C 6.949880 2.123311 -3.499155
C 8.454738 2.135609 -3.743541
C 8.822663 2.910748 -4.987969
F 10.199719 2.897845 -5.171786
H 0.540375 -0.331620 0.709643
H 0.651264 -0.429583 -1.075067
H 0.568169 1.167022 -0.269939
H 2.717635 1.777448 -1.250195
H 2.789474 0.193539 -2.067037
H 4.411002 0.913137 1.255433
H 4.595783 2.443230 0.362108
H 5.998040 1.362804 0.585932
H 4.416341 -1.330733 -0.101606
H 6.067572 -0.880365 -0.582355
H 4.854649 -1.276639 -1.831326
H 4.783799 2.299523 -2.102217
H 6.917624 0.307106 -2.353422
H 7.092229 1.773447 -1.378054
H 6.583387 3.161594 -3.405988
H 6.427527 1.685167 -4.366577
H 8.829227 1.103196 -3.846080
H 8.975377 2.584111 -2.880754
H 8.502559 3.963041 -4.912021
H 8.358382 2.468786 -5.884931