39
H25 C12 N1 O1
C 1.789769 0.296132 1.309261
C 3.007265 0.852612 0.580379
C 3.083568 0.583067 -0.928712
C 1.869133 1.100651 -1.718855
C 0.731687 0.096429 -1.886484
C 4.400848 1.174618 -1.464523
N 4.672188 0.864570 -2.860722
C 4.679598 2.015565 -3.771227
C 5.988859 2.812862 -3.745582
C 4.295821 1.621223 -5.196039
C 5.686537 -0.121790 -3.112596
C 7.123298 -0.008873 -2.537108
O 7.045814 -1.326324 -1.989515
C 5.665461 -1.451737 -2.336421
H 1.878273 0.461546 2.394502
H 1.682617 -0.788668 1.146118
H 0.856458 0.779405 0.981948
H 3.918559 0.440675 1.048416
H 3.055096 1.945308 0.742193
H 3.137887 -0.510816 -1.079212
H 2.205334 1.385863 -2.727694
H 1.494081 2.027381 -1.247536
H 1.081020 -0.794331 -2.434114
H -0.100460 0.532531 -2.461917
H 0.324374 -0.248113 -0.924948
H 5.224885 0.827878 -0.815957
H 4.369933 2.270221 -1.328040
H 3.881778 2.680559 -3.404645
H 6.823193 2.226535 -4.163888
H 6.256249 3.105625 -2.718047
H 5.897835 3.732589 -4.344574
H 5.080024 1.026748 -5.691175
H 4.137152 2.521946 -5.808655
H 3.365828 1.032316 -5.198561
H 5.726490 -0.310346 -4.193514
H 7.254445 0.764019 -1.758573
H 7.938346 0.092590 -3.274524
H 5.015819 -1.464575 -1.444876
H 5.457628 -2.357202 -2.931792