24
H15 C7 N1 O1
C 1.061122 0.126790 0.070763
C 2.570892 0.039530 -0.110662
C 3.022623 -1.278074 -0.727019
N 4.461437 -1.314545 -0.914023
C 4.946414 -2.555337 -1.484007
C 6.464274 -2.516404 -1.639212
C 7.082170 -3.770832 -2.222283
C 6.430906 -4.353516 -3.451132
O 8.068177 -4.273276 -1.726841
H 0.766958 1.088237 0.518639
H 0.689331 -0.674961 0.729355
H 0.536727 0.033992 -0.894226
H 3.069463 0.166181 0.866777
H 2.927052 0.865486 -0.748981
H 2.541232 -1.403918 -1.713719
H 2.654640 -2.120890 -0.099465
H 4.915099 -1.165007 -0.012714
H 4.471642 -2.688818 -2.470744
H 4.660842 -3.445593 -0.880620
H 6.948641 -2.328680 -0.668549
H 6.728337 -1.678628 -2.309135
H 5.481260 -4.835280 -3.165259
H 7.087969 -5.107002 -3.904505
H 6.188720 -3.566936 -4.181869