22
H14 C6 O2
C 0.936798 -0.126967 0.089149
C 2.453207 -0.043398 -0.025718
C 2.902635 0.738182 -1.245794
O 4.302903 0.775456 -1.287883
C 4.815209 1.478347 -2.385735
C 6.330578 1.453789 -2.334382
C 6.972649 2.212746 -3.487662
O 8.377498 2.145290 -3.471380
H 0.637374 -0.698522 0.980478
H 0.494401 -0.623914 -0.789443
H 0.484418 0.874863 0.168296
H 2.887949 -1.055358 -0.079332
H 2.877850 0.435441 0.872259
H 2.488418 1.768040 -1.211140
H 2.499577 0.268151 -2.167669
H 4.449485 2.526591 -2.379479
H 4.459097 1.027167 -3.335504
H 6.680409 0.408702 -2.350401
H 6.660185 1.893508 -1.376758
H 6.618787 3.263077 -3.485013
H 6.650665 1.775218 -4.446785
H 8.680358 2.554569 -2.652296