23
H14 C7 O2
C 1.124090 -0.318661 0.305207
C 2.478316 -0.001225 -0.316295
O 2.437004 -0.147430 -1.724032
C 3.041629 1.366768 0.109372
C 2.164904 2.554356 -0.306184
C 2.836973 3.876355 0.046730
O 4.121743 3.986207 -0.514806
C 4.984447 2.964864 -0.072679
C 4.459204 1.580731 -0.429229
H 0.816944 -1.341513 0.040690
H 0.345033 0.371411 -0.058373
H 1.161207 -0.240221 1.402591
H 3.201141 -0.762273 0.024161
H 1.745378 0.435552 -2.059959
H 3.093613 1.358383 1.214211
H 1.178312 2.515508 0.181815
H 1.995062 2.529178 -1.397265
H 2.896022 3.976496 1.151146
H 2.249387 4.726395 -0.331039
H 5.124908 3.039439 1.026372
H 5.961890 3.147520 -0.543680
H 5.144834 0.814983 -0.030122
H 4.443660 1.466696 -1.525432