25
H14 C8 O3
C 2.118637 0.176420 -1.315641
C 2.609524 0.043167 0.106708
O 3.427279 -1.095406 0.271517
C 4.376749 -0.801969 1.249841
C 5.689854 -1.548094 1.014438
C 6.260607 -1.189860 -0.360727
C 6.674769 -1.155709 2.121497
C 5.389483 -3.049775 1.092246
O 4.562994 0.619100 1.185519
C 3.524369 1.173903 0.551351
O 3.391049 2.353789 0.395398
H 1.485587 -0.682037 -1.579622
H 2.965543 0.226360 -2.015594
H 1.520466 1.093168 -1.413704
H 1.753852 0.016762 0.811767
H 3.980508 -1.024710 2.260858
H 6.479333 -0.113787 -0.435955
H 5.557492 -1.454678 -1.164001
H 7.199558 -1.737902 -0.533288
H 6.907958 -0.080877 2.090376
H 7.617212 -1.711865 2.002039
H 6.269431 -1.389626 3.119129
H 4.685655 -3.358791 0.305412
H 4.954075 -3.320337 2.067733
H 6.318777 -3.626247 0.966333