30
H18 C9 N1 O1 F1
C 5.900786 -0.299489 -3.477721
O 5.737332 0.061064 -2.138032
C 4.455794 0.549004 -1.841283
C 4.390515 1.070516 -0.410927
C 2.931785 1.182161 0.022542
N 5.004151 2.387220 -0.248679
C 6.441567 2.566228 -0.394336
C 6.948320 2.865905 -1.824714
C 8.351748 2.224374 -1.921939
C 8.720112 1.823214 -0.486876
C 7.372283 1.456998 0.103690
F 7.384590 1.404075 1.495946
H 6.910591 -0.716148 -3.599167
H 5.793605 0.570142 -4.155454
H 5.165772 -1.066633 -3.790219
H 3.712370 -0.263310 -1.967600
H 4.173002 1.365320 -2.537492
H 4.875081 0.301422 0.226335
H 2.383992 1.879370 -0.631668
H 2.862110 1.559730 1.054612
H 2.431385 0.203316 -0.011610
H 4.730855 2.739262 0.664424
H 6.693407 3.437705 0.233238
H 6.979270 3.952621 -1.993221
H 6.265843 2.444601 -2.572928
H 9.100187 2.894655 -2.367935
H 8.306457 1.323805 -2.552881
H 9.124534 2.684162 0.071883
H 9.454341 1.006567 -0.432970
H 7.045614 0.472011 -0.258758