34
H21 C10 N1 O2
C 1.473093 -0.340850 -0.779596
C 2.922281 -0.315321 -0.309344
C 3.153147 -0.914583 1.081567
C 2.729733 -2.403556 1.190365
C 1.342870 -2.620634 1.785050
C 4.626530 -0.776169 1.465586
O 5.493651 -0.627579 0.613376
N 4.952259 -0.850174 2.792951
C 4.019490 -1.144992 3.863929
C 6.361560 -0.852895 3.142475
C 6.958761 -2.252902 3.119675
O 8.303085 -2.164254 3.493658
C 8.960750 -3.396400 3.494570
H 1.373522 0.170793 -1.749437
H 0.805289 0.167957 -0.065230
H 1.100124 -1.368006 -0.914582
H 3.282883 0.726293 -0.303169
H 3.560718 -0.848923 -1.031040
H 2.551890 -0.332345 1.798710
H 3.460188 -2.957972 1.802317
H 2.787074 -2.857284 0.186350
H 1.293541 -2.237051 2.816685
H 1.090106 -3.692014 1.815366
H 0.561282 -2.108899 1.204403
H 3.012379 -0.780895 3.633013
H 4.352529 -0.635984 4.779838
H 3.952493 -2.225251 4.079007
H 6.477813 -0.422533 4.148555
H 6.906423 -0.221010 2.429619
H 6.856594 -2.679341 2.101324
H 6.400917 -2.918444 3.810470
H 10.004537 -3.226997 3.795497
H 8.957450 -3.868630 2.492528
H 8.502779 -4.110638 4.207054