26
H16 C8 N2
C 1.039288 0.394250 -0.352115
C 2.518766 0.052971 -0.250100
N 2.914632 -0.395134 1.075865
C 2.307018 -1.664160 1.478630
C 1.309282 -1.520284 2.620509
C 4.344891 -0.331758 1.304583
C 4.701191 -0.298599 2.787865
C 6.217453 -0.200852 2.989095
C 6.601382 -0.169413 4.397364
N 6.892950 -0.146423 5.516325
H 0.806527 0.780270 -1.356510
H 0.768119 1.164634 0.386882
H 0.398296 -0.484304 -0.180300
H 3.103462 0.955747 -0.488095
H 2.776690 -0.698636 -1.031091
H 3.097144 -2.377005 1.774399
H 1.806822 -2.131876 0.611230
H 1.795120 -1.101843 3.515722
H 0.876463 -2.496893 2.891323
H 0.484370 -0.846985 2.341085
H 4.728408 0.589251 0.836731
H 4.886506 -1.176112 0.819059
H 4.329742 -1.203594 3.293536
H 4.202214 0.563713 3.257078
H 6.618537 0.708697 2.514206
H 6.729588 -1.058634 2.524594