28
H15 C8 N1 O2 F2
C 2.796650 -0.189434 0.915566
O 2.364500 0.566809 -0.186935
C 2.663649 0.000852 -1.417257
C 1.970727 0.807881 -2.515945
N 0.535006 0.892621 -2.460800
C -0.238322 -0.338114 -2.507139
C -1.662228 0.166214 -2.314015
C -1.454517 1.234754 -1.260554
F -1.476156 0.661118 -0.014775
F -2.440742 2.170576 -1.243601
C -0.077450 1.833804 -1.532775
O 4.048824 0.028960 -1.638509
C 4.624389 -1.184010 -2.045759
H 2.452187 0.319418 1.826000
H 3.896486 -0.270047 0.949406
H 2.370051 -1.210083 0.897007
H 2.319119 -1.055779 -1.432643
H 2.270464 0.353614 -3.476247
H 2.394795 1.825022 -2.496279
H 0.016242 -1.052912 -1.696688
H -0.091881 -0.859078 -3.466443
H -2.381223 -0.594466 -1.983293
H -2.030602 0.649073 -3.230682
H 0.464425 1.930305 -0.579274
H -0.186653 2.836896 -1.979147
H 5.706293 -1.020026 -2.148911
H 4.234528 -1.526971 -3.021812
H 4.462768 -1.989076 -1.304816