26
H17 C8 N1
C 0.776508 -0.096741 -0.063433
C 2.271324 0.196534 0.064761
C 2.501656 1.538706 0.760914
C 2.983713 -0.961085 0.774384
C 4.498544 -0.828579 0.863953
N 5.091469 -2.011261 1.465367
C 6.515753 -1.942402 1.609342
C 7.339357 -3.181319 1.468332
C 7.450660 -2.089722 0.429221
H 0.257208 0.701805 -0.616805
H 0.305379 -0.174785 0.931206
H 0.595862 -1.045657 -0.593312
H 2.689193 0.269667 -0.956411
H 2.158450 1.500327 1.809118
H 1.944689 2.344526 0.256793
H 3.563570 1.828459 0.765874
H 2.748963 -1.898891 0.238962
H 2.574477 -1.077824 1.794184
H 4.767270 0.038744 1.490470
H 4.909696 -0.615621 -0.147727
H 4.837675 -2.835303 0.922084
H 6.833953 -1.231497 2.381456
H 6.817909 -4.100027 1.180445
H 8.172932 -3.334395 2.158851
H 6.992226 -2.281101 -0.546233
H 8.364913 -1.490038 0.398281