23
H14 C7 O2
O 0.966506 -0.217414 0.334343
C 2.345364 0.014396 0.166649
C 2.759895 -0.469053 -1.209621
C 4.239943 -0.237067 -1.492399
C 4.743468 -0.841017 -2.799280
C 4.117638 -0.299775 -4.088511
C 4.231494 -1.499413 -5.025169
C 3.965710 -2.651405 -4.062189
O 4.500900 -2.246990 -2.814816
H 0.715031 0.095582 1.209830
H 2.939072 -0.516406 0.937862
H 2.586537 1.091994 0.266594
H 2.131774 0.044625 -1.955911
H 2.538358 -1.545438 -1.291790
H 4.836463 -0.667066 -0.669449
H 4.465123 0.843403 -1.505339
H 5.838647 -0.681254 -2.844273
H 4.636058 0.598615 -4.452146
H 3.058404 -0.041425 -3.931466
H 5.251435 -1.571833 -5.435891
H 3.523674 -1.474750 -5.865735
H 4.442649 -3.595018 -4.372548
H 2.878608 -2.838691 -3.965605