29
H19 C9 N1
C 0.978119 0.074608 -0.129466
C 2.497128 0.105316 -0.162413
N 3.016509 1.077051 0.784189
C 4.463517 1.076003 0.969869
C 5.177490 1.542812 -0.297712
C 4.793665 1.916715 2.217187
C 6.305086 1.971830 2.562923
C 6.728675 3.425758 2.327966
C 5.483860 4.216170 2.731791
C 4.338465 3.396439 2.126665
H 0.581148 -0.631685 -0.873964
H 0.565460 1.072975 -0.343366
H 0.609667 -0.238922 0.861334
H 2.828923 0.375208 -1.178520
H 2.892764 -0.917544 0.027349
H 2.580389 0.904041 1.689564
H 4.830747 0.045253 1.181829
H 4.813534 2.529013 -0.625377
H 5.016509 0.836969 -1.126186
H 6.264231 1.606588 -0.139309
H 4.261520 1.431846 3.053148
H 6.900920 1.250313 1.982512
H 6.451315 1.717741 3.624813
H 6.939406 3.592240 1.257516
H 7.631964 3.708765 2.890087
H 5.495272 5.261419 2.385888
H 5.400321 4.234771 3.832372
H 4.196144 3.686396 1.073811
H 3.376301 3.569310 2.630890