26
H15 C8 N1 O2
C 1.107994 0.143338 0.017631
C 2.610071 0.002798 0.011768
O 3.155148 1.070701 -0.773662
C 4.475217 1.107974 -0.923214
O 5.232980 0.315227 -0.419867
C 4.896786 2.230117 -1.841322
N 6.300638 2.522612 -1.694686
C 6.800570 3.446468 -2.685035
C 6.409703 4.933059 -2.535324
C 7.858262 5.304890 -2.919434
C 8.277891 3.862191 -2.564328
H 0.665792 -0.666529 0.616054
H 0.701622 0.079772 -1.002864
H 0.802738 1.104095 0.458499
H 2.925628 -0.958579 -0.422919
H 3.026014 0.059714 1.029704
H 4.286584 3.119214 -1.615233
H 4.604073 1.914131 -2.868402
H 6.827587 1.650836 -1.736329
H 6.583865 3.112394 -3.722728
H 6.201196 5.160258 -1.477936
H 5.588928 5.319308 -3.157874
H 8.336765 6.124444 -2.363969
H 7.957585 5.507102 -3.996667
H 8.605154 3.783305 -1.515938
H 9.009710 3.354760 -3.210355