39
H25 C12 N1 O1
C 0.731874 0.303881 -0.604449
C 2.012384 -0.172010 0.071679
C 2.744922 -1.322939 -0.630274
C 3.139888 -1.004782 -2.084631
C 2.160550 -1.511179 -3.138847
C 3.978870 -1.720882 0.194131
N 4.605402 -2.944572 -0.280473
C 3.980562 -4.164454 0.217962
C 4.471240 -4.540583 1.612854
O 5.879684 -4.608306 1.659223
C 6.471295 -3.388748 1.268724
C 6.064591 -3.006263 -0.158851
C 6.689324 -3.964221 -1.182798
C 6.247111 -3.717814 -2.617670
H 0.236326 1.080584 -0.001130
H 0.015371 -0.523644 -0.734787
H 0.927125 0.737529 -1.597543
H 1.774864 -0.486560 1.102843
H 2.709551 0.680587 0.169336
H 2.061375 -2.192706 -0.642245
H 4.120441 -1.465438 -2.283612
H 3.282171 0.085580 -2.193788
H 2.080907 -2.610090 -3.096937
H 2.490789 -1.241513 -4.154761
H 1.148093 -1.102666 -2.999048
H 3.693084 -1.779875 1.264519
H 4.717580 -0.904666 0.123882
H 4.197699 -4.995721 -0.474664
H 2.886982 -4.042078 0.229217
H 4.086698 -5.529105 1.905606
H 4.106424 -3.804131 2.357880
H 7.561393 -3.518100 1.348274
H 6.173839 -2.581536 1.968978
H 6.451399 -1.994560 -0.364476
H 7.784202 -3.856350 -1.105426
H 6.471111 -5.005309 -0.893839
H 6.441365 -2.675976 -2.921920
H 5.170039 -3.903516 -2.742713
H 6.787314 -4.375690 -3.316355