26
H14 C7 N1 O1 F3
C 0.880286 0.087223 -0.111613
C 2.402337 0.058478 -0.069644
C 3.023680 -0.714930 -1.229491
O 2.626902 -0.192355 -2.487314
C 4.544838 -0.775194 -1.140082
N 5.082453 -1.563819 -2.229003
C 6.524356 -1.512038 -2.333997
C 6.993853 -2.389666 -3.487752
C 8.486440 -2.418772 -3.657433
F 8.998464 -1.202669 -3.909932
F 9.117351 -2.878886 -2.564540
F 8.853001 -3.209792 -4.676524
H 0.468843 0.679213 0.719914
H 0.462555 -0.930062 -0.040070
H 0.522449 0.528115 -1.053943
H 2.747717 -0.392504 0.875185
H 2.799285 1.090180 -0.083208
H 2.642793 -1.750599 -1.219828
H 2.879458 0.740470 -2.505758
H 4.837625 -1.226549 -0.176627
H 4.938503 0.267696 -1.131965
H 4.663852 -1.222328 -3.094249
H 6.961766 -1.883503 -1.392322
H 6.910975 -0.480200 -2.472926
H 6.569611 -2.035323 -4.439844
H 6.657807 -3.425836 -3.337145