23
H15 C6 N1 O1
C 1.076138 0.231979 0.138873
N 2.500103 -0.024121 0.046154
C 2.946830 -0.990150 -0.965157
C 2.505756 -2.427557 -0.650726
C 2.445182 -0.575653 -2.350006
C 4.478609 -0.903498 -0.937129
O 5.042899 -1.809221 -1.840503
C 6.438206 -1.767967 -1.869545
H 0.885735 0.868563 1.016072
H 0.442160 -0.672003 0.243913
H 0.716479 0.785876 -0.742292
H 2.834464 -0.341258 0.954989
H 1.408677 -2.519150 -0.657493
H 2.869558 -2.733086 0.344388
H 2.910023 -3.133048 -1.390909
H 1.360178 -0.727242 -2.454236
H 2.945888 -1.177235 -3.121497
H 2.666681 0.486770 -2.539626
H 4.835926 -1.113841 0.094018
H 4.781224 0.136026 -1.177066
H 6.787372 -2.507923 -2.603868
H 6.880553 -2.016339 -0.884711
H 6.816921 -0.771029 -2.169054