21
H13 C6 N1 O1
O 1.021785 -0.033543 -0.065002
C 2.423640 -0.043049 -0.163560
C 2.866066 1.237594 -0.846428
N 4.308217 1.289261 -0.962997
C 4.809461 2.518335 -1.549643
C 6.312782 2.489669 -1.669347
C 6.950920 1.798746 -2.845534
C 7.002177 3.298427 -2.729958
H 0.746075 -0.847847 0.368833
H 2.783889 -0.911540 -0.751719
H 2.909982 -0.102336 0.829342
H 2.525240 2.094182 -0.239612
H 2.342431 1.318555 -1.824067
H 4.627890 0.505480 -1.532072
H 4.504289 3.361497 -0.904854
H 4.371915 2.722857 -2.552432
H 6.835866 2.391174 -0.712128
H 6.284973 1.370456 -3.601584
H 7.872008 1.233843 -2.679280
H 6.376099 3.883841 -3.410328
H 7.958623 3.765748 -2.481222