29
H16 C9 O4
C 0.914249 -0.028910 -0.059482
C 2.429862 0.088410 -0.149888
C 3.078836 -1.183524 -0.709713
C 2.837052 1.289085 -0.982903
O 2.093028 1.969934 -1.645975
O 4.151673 1.513007 -0.910624
C 4.672013 2.603427 -1.669090
C 6.169565 2.643189 -1.452409
C 6.825898 3.741962 -2.254812
O 6.362774 4.997790 -1.853854
C 7.357997 5.900972 -2.282264
C 8.653360 5.101759 -2.083659
O 8.215497 3.754315 -2.035810
H 0.638572 -0.875148 0.587463
H 0.471870 -0.199447 -1.052990
H 0.462653 0.882680 0.358615
H 2.844819 0.265732 0.856815
H 2.733541 -1.378399 -1.737898
H 2.805405 -2.050786 -0.090299
H 4.174988 -1.104267 -0.723124
H 4.197251 3.539673 -1.338764
H 4.424712 2.461643 -2.733491
H 6.615081 1.683323 -1.754380
H 6.400126 2.809661 -0.388907
H 6.628140 3.604443 -3.342863
H 7.305289 6.813428 -1.674367
H 7.211684 6.168213 -3.345175
H 9.155119 5.352539 -1.135249
H 9.365968 5.256497 -2.909942