12
H6 C3 O3
O 1.130074 -0.151651 0.163871
C 2.314563 -0.252563 0.309099
O 3.097417 -0.813424 -0.609229
C 4.483520 -0.951961 -0.306433
C 4.757002 -2.292331 0.363663
O 6.118386 -2.447077 0.654798
H 2.865282 0.117865 1.203503
H 4.826619 -0.126492 0.338873
H 5.017210 -0.881640 -1.265197
H 4.364029 -3.105389 -0.274967
H 4.209564 -2.335949 1.319400
H 6.591282 -2.575239 -0.176380