39
H25 C12 N1 O1
C 5.331429 0.773063 -7.078819
C 5.157829 1.111364 -5.615384
O 4.960760 -0.071719 -4.887775
C 4.783125 0.131344 -3.513141
C 4.772138 -1.199866 -2.771211
C 4.216572 -0.999593 -1.365415
N 6.097858 -1.796992 -2.667912
C 6.707265 -2.337646 -3.889466
C 7.789088 -1.392676 -4.439051
C 9.157512 -1.465243 -3.754234
C 10.094579 -2.512236 -4.364075
C 9.696387 -3.974091 -4.158291
C 8.258524 -4.345209 -4.536825
C 7.204852 -3.761062 -3.590585
H 5.478141 1.690324 -7.668248
H 4.442678 0.250952 -7.465052
H 6.206820 0.122489 -7.227524
H 4.294990 1.794746 -5.477018
H 6.051144 1.648931 -5.235944
H 3.826315 0.661999 -3.331544
H 5.594593 0.765481 -3.099576
H 4.074897 -1.859900 -3.333489
H 4.847051 -0.299030 -0.794381
H 4.190720 -1.955043 -0.818280
H 3.191633 -0.601478 -1.395018
H 6.052232 -2.530852 -1.966316
H 5.932831 -2.408536 -4.674465
H 7.384288 -0.373751 -4.369774
H 7.922720 -1.585483 -5.517841
H 9.024194 -1.643890 -2.672018
H 9.649941 -0.482599 -3.837100
H 11.111246 -2.371544 -3.959335
H 10.169725 -2.309451 -5.447971
H 9.847079 -4.242413 -3.096880
H 10.394829 -4.606672 -4.731877
H 8.176304 -5.443766 -4.510735
H 8.046199 -4.052451 -5.580223
H 7.627019 -3.772709 -2.569009
H 6.321625 -4.420187 -3.556386