34
H21 C10 N1 O2
C 11.299728 -2.867520 -1.356548
C 9.821754 -2.768067 -1.713659
C 8.897624 -2.560508 -0.499758
C 9.107109 -1.211435 0.185840
C 7.456041 -2.670227 -0.975311
O 6.931269 -1.751880 -1.594941
N 6.755669 -3.814856 -0.744026
C 7.055324 -5.053470 -0.024188
C 8.260575 -5.819565 -0.563524
C 7.067502 -4.928230 1.512584
C 5.908653 -4.089983 2.034640
O 8.319769 -4.436358 1.934671
C 8.611045 -4.604272 3.292735
H 11.906096 -3.078092 -2.251115
H 11.478627 -3.679423 -0.632620
H 11.681736 -1.935021 -0.913431
H 9.517294 -3.691609 -2.234164
H 9.657547 -1.944183 -2.429019
H 9.093066 -3.346146 0.238705
H 8.904427 -0.382494 -0.508879
H 10.137660 -1.112324 0.557529
H 8.433749 -1.102595 1.050471
H 5.814333 -3.758089 -1.120243
H 6.173148 -5.678359 -0.228617
H 9.211398 -5.309497 -0.364148
H 8.160936 -5.967826 -1.648890
H 8.309903 -6.810021 -0.086114
H 6.954752 -5.963577 1.895590
H 6.026458 -3.037140 1.737127
H 5.842792 -4.137089 3.131359
H 4.955082 -4.460331 1.628520
H 9.665593 -4.332165 3.442717
H 8.471942 -5.654923 3.612955
H 7.994798 -3.960574 3.946462