30
H18 C9 N1 O1 F1
C 0.721152 -0.309772 0.542900
C 2.131194 -0.079337 0.018287
C 3.050197 -1.291089 0.199134
C 4.411574 -1.106019 -0.459052
N 4.304512 -1.115959 -1.910766
C 5.551253 -0.721490 -2.540770
C 5.588897 0.783842 -2.729854
F 6.807951 1.155305 -3.278045
C 3.704354 -2.363937 -2.384639
C 3.444558 -2.365882 -3.886065
C 2.370677 -2.567909 -1.661512
O 2.471194 -2.500315 -0.263483
H 0.104563 0.595831 0.435706
H 0.732227 -0.583953 1.610539
H 0.221181 -1.125155 -0.001436
H 2.599391 0.765571 0.549963
H 2.103273 0.208866 -1.044629
H 3.208104 -1.448238 1.278383
H 5.088868 -1.916085 -0.108290
H 4.847937 -0.151900 -0.127809
H 5.651007 -1.188717 -3.528851
H 6.434501 -1.039295 -1.950095
H 5.469584 1.315805 -1.772405
H 4.786522 1.102540 -3.413803
H 4.361386 -3.226373 -2.128039
H 2.894638 -1.457860 -4.180533
H 2.836622 -3.242090 -4.158883
H 4.367682 -2.417855 -4.479070
H 1.978874 -3.567743 -1.900298
H 1.643039 -1.825398 -2.045534