28
H18 C8 O2
C 0.962761 -0.160970 -0.039861
O 2.354610 -0.075044 0.008930
C 2.817347 1.068048 0.674934
C 4.333560 1.073100 0.678507
C 4.921613 2.290695 1.383726
C 6.447607 2.303510 1.392644
C 7.035661 3.521105 2.097863
C 8.551874 3.526157 2.101436
O 9.014610 4.669249 2.767440
C 10.406459 4.755175 2.816231
H 0.694270 -1.081509 -0.578138
H 0.510380 0.699094 -0.572766
H 0.512146 -0.204528 0.971778
H 2.434052 1.090624 1.717097
H 2.434803 1.985731 0.179923
H 4.688016 1.035358 -0.365811
H 4.687633 0.148414 1.165584
H 4.552064 2.327363 2.424060
H 4.553572 3.211222 0.896523
H 6.817157 2.266842 0.352310
H 6.815649 1.382983 1.879847
H 6.681204 3.558847 3.142181
H 6.681588 4.445791 1.610786
H 8.935169 3.503581 1.059273
H 8.934418 2.608474 2.596447
H 10.674950 5.675714 3.354508
H 10.857075 4.798733 1.804592
H 10.858841 3.895111 3.349136