39
H25 C12 N1 O1
C 1.181104 -0.078579 -0.356307
C 2.697846 -0.057540 -0.209597
C 3.154743 0.033031 1.243997
C 4.672402 0.022485 1.384282
N 5.144984 0.222492 2.744904
C 4.713158 -0.823394 3.674663
C 3.522281 -0.412238 4.497302
C 2.369927 -1.071839 4.693755
C 2.026658 -2.400157 4.074812
C 1.288181 -0.496631 5.569822
C 6.561953 0.521991 2.823292
C 6.896222 1.350122 4.053424
O 8.272678 1.602052 4.064356
C 8.687805 2.363440 5.158259
H 0.877510 -0.143749 -1.412711
H 0.727579 0.832861 0.066232
H 0.742303 -0.941219 0.171485
H 3.112774 0.793480 -0.777673
H 3.124399 -0.966760 -0.668709
H 2.715312 -0.805577 1.808092
H 2.762669 0.956411 1.705333
H 5.083291 0.835132 0.762829
H 5.065825 -0.928445 0.954307
H 5.544371 -1.041653 4.366618
H 4.527506 -1.770213 3.134503
H 3.648076 0.558388 4.994414
H 2.804556 -2.787219 3.403923
H 1.086645 -2.321434 3.502407
H 1.851771 -3.156526 4.858803
H 1.577535 0.471693 6.003731
H 1.042628 -1.185806 6.395886
H 0.356801 -0.353624 4.995293
H 6.850945 1.108444 1.937819
H 7.196352 -0.391231 2.819803
H 6.592050 0.819931 4.979567
H 6.315891 2.295144 4.021687
H 9.774918 2.509552 5.081778
H 8.469638 1.860400 6.121158
H 8.201955 3.358982 5.179888