29
H16 C8 N1 O1 F3
C 0.772084 -2.561890 0.443229
C 2.295587 -2.514470 0.409020
C 2.905120 -1.171740 0.825284
C 2.554565 -0.068064 -0.161920
O 3.148961 1.128503 0.266115
C 2.967742 2.193032 -0.621630
N 4.358849 -1.254340 0.906353
C 4.865337 -1.889735 2.106254
C 6.387803 -1.930124 2.064196
C 7.004268 -2.601156 3.258669
F 6.701254 -1.980003 4.410690
F 6.600926 -3.875367 3.394917
F 8.342712 -2.626995 3.176182
H 0.409484 -3.580348 0.236742
H 0.316212 -1.895453 -0.305115
H 0.386555 -2.266406 1.432713
H 2.666695 -2.767128 -0.599240
H 2.688678 -3.292388 1.082743
H 2.469011 -0.882670 1.808006
H 2.926738 -0.345854 -1.170196
H 1.457067 0.050316 -0.233150
H 3.465672 3.077420 -0.199508
H 1.896136 2.430158 -0.767481
H 3.408332 1.981802 -1.615328
H 4.713184 -0.298680 0.874508
H 4.484437 -2.921159 2.165480
H 4.532979 -1.378292 3.033721
H 6.802824 -0.911432 2.017764
H 6.727364 -2.471338 1.169182