15
H9 C4 N1 O1
C 1.020879 -0.324727 0.165216
C 2.440227 0.103394 -0.126346
O 3.402849 -0.929176 0.147084
C 3.970294 -0.191357 1.229863
C 3.123947 1.046197 0.908987
N 2.408874 1.644531 2.003510
H 0.717938 -1.132746 -0.518385
H 0.327805 0.519733 0.024256
H 0.915026 -0.694060 1.197500
H 2.524199 0.446562 -1.173082
H 5.065006 -0.084975 1.144356
H 3.736227 -0.638712 2.214582
H 3.708242 1.826921 0.400458
H 1.788618 0.968685 2.447837
H 1.820589 2.408789 1.674775