23
H15 C7 N1
C 3.091413 0.465990 1.497639
C 2.625539 0.096384 0.093690
C 3.101258 1.104429 -0.956711
C 2.680302 0.679188 -2.364601
N 3.091424 -0.672679 -2.717547
C 2.658710 -1.671162 -1.740373
C 3.161792 -3.046398 -2.153668
C 3.075011 -1.312766 -0.306766
H 2.738132 1.468968 1.786614
H 4.192904 0.469108 1.558163
H 2.717887 -0.251496 2.245982
H 1.518886 0.106042 0.084201
H 4.204482 1.174648 -0.915418
H 2.708371 2.110273 -0.730684
H 3.083305 1.378357 -3.114494
H 1.579056 0.733543 -2.442882
H 4.110649 -0.702460 -2.776455
H 1.552273 -1.681310 -1.771032
H 4.264449 -3.079237 -2.133158
H 2.833721 -3.291042 -3.175410
H 2.790318 -3.826440 -1.471882
H 4.178066 -1.375399 -0.234598
H 2.667032 -2.056032 0.399629