25
H14 C8 O3
C 4.927104 0.066661 -1.615129
C 3.878815 1.081013 -2.072827
C 4.521418 2.266009 -2.791855
C 2.987822 1.505021 -0.904162
O 3.849493 2.070283 0.107391
C 3.431437 2.886922 1.070369
O 4.193633 3.290951 1.905800
O 2.153292 3.258948 1.083588
C 1.205485 2.814184 0.108251
C 1.873158 2.493662 -1.212930
C 0.862265 1.959269 -2.218856
H 5.489213 -0.322962 -2.477474
H 4.460098 -0.788747 -1.101700
H 5.646987 0.526202 -0.920859
H 3.204805 0.567602 -2.778746
H 5.131703 2.864776 -2.097196
H 3.772627 2.930842 -3.248554
H 5.181862 1.911319 -3.597708
H 2.536173 0.595728 -0.467599
H 0.476349 3.629145 0.008417
H 0.684720 1.928423 0.508753
H 2.321127 3.423323 -1.602429
H 0.468979 0.978977 -1.905315
H 1.312108 1.844728 -3.215173
H 0.012197 2.651411 -2.314785