30
H19 C9 N1 O1
C 1.329082 2.352183 1.784398
O 2.610552 1.846589 1.544518
C 2.872944 1.476352 0.202980
C 2.255281 0.130108 -0.148400
C 4.385686 1.475404 0.045435
N 4.930744 2.785621 0.328114
C 6.379014 2.836847 0.333037
C 6.882530 4.236330 0.664338
C 8.390233 4.339052 0.666187
C 9.132165 4.547371 -0.626509
C 9.064893 5.653641 0.393063
H 1.284423 2.667576 2.836819
H 0.534192 1.601356 1.619208
H 1.106986 3.230470 1.147628
H 2.462043 2.257224 -0.468640
H 2.654156 -0.659575 0.507704
H 2.480665 -0.135874 -1.192239
H 1.160828 0.149061 -0.039590
H 4.634202 1.187379 -0.990228
H 4.805222 0.682148 0.704681
H 4.578872 3.071607 1.241453
H 6.745921 2.546176 -0.667788
H 6.827946 2.107820 1.044894
H 6.490477 4.533796 1.653770
H 6.460535 4.947746 -0.065671
H 8.887650 3.693107 1.398743
H 8.535182 4.658710 -1.537280
H 10.086267 4.033143 -0.770586
H 8.425686 6.513558 0.170221
H 9.972693 5.897463 0.951621