17
H10 C5 O2
C 0.826656 0.059711 -0.209164
C 2.310948 0.031599 0.073719
O 2.876264 1.264408 -0.328412
C 4.251618 1.324001 -0.239805
O 4.755302 1.333353 1.045605
C 5.060644 0.685492 -1.330952
C 4.920719 2.200780 -1.231447
H 0.361488 -0.885586 0.107391
H 0.636822 0.197729 -1.284504
H 0.342299 0.883470 0.336991
H 2.795420 -0.800558 -0.472280
H 2.488909 -0.135998 1.152205
H 4.838875 0.419611 1.346774
H 4.519275 0.182126 -2.136475
H 6.026129 0.246601 -1.064848
H 4.285824 2.699117 -1.968072
H 5.788977 2.768003 -0.887328