36
H23 C11 N1 O1
C 5.803963 -1.602688 -6.870011
C 5.113850 -2.124438 -5.854129
C 5.648999 -2.362040 -4.472559
C 4.910654 -1.547945 -3.407868
C 5.387156 -1.801607 -1.972373
C 4.605803 -0.940994 -0.984984
N 6.825580 -1.552679 -1.834421
C 7.647395 -2.744561 -1.719005
C 9.146366 -2.434489 -1.719521
C 9.732142 -2.154324 -0.331371
C 9.065759 -1.021411 0.440794
O 9.778354 -3.549435 -2.318222
C 11.100842 -3.350496 -2.724105
H 5.347854 -1.446961 -7.852532
H 6.855278 -1.313490 -6.757195
H 4.060995 -2.395068 -6.013273
H 6.722652 -2.116591 -4.441351
H 5.553699 -3.436139 -4.229599
H 3.829299 -1.763908 -3.465645
H 5.032255 -0.472762 -3.630901
H 5.176009 -2.863067 -1.732311
H 4.810851 0.128711 -1.159224
H 4.886620 -1.178730 0.053255
H 3.521743 -1.097630 -1.089454
H 6.985336 -0.947116 -1.035317
H 7.465719 -3.380125 -2.597525
H 7.395490 -3.359763 -0.826972
H 9.295523 -1.542016 -2.363261
H 10.803106 -1.921195 -0.443787
H 9.673855 -3.091530 0.248886
H 9.048173 -0.087514 -0.144595
H 9.612707 -0.815037 1.373053
H 8.030031 -1.266537 0.724899
H 11.391051 -4.208443 -3.348259
H 11.812131 -3.291250 -1.879378
H 11.211329 -2.428733 -3.328373