25
H15 C7 N1 O2
C 1.175910 -0.173675 0.456201
O 2.566091 -0.299351 0.522967
C 3.156094 0.662601 1.331116
C 4.656335 0.412738 1.436232
O 5.156675 -0.679430 1.235157
N 5.357070 1.510187 1.813065
C 6.765675 1.490052 2.137931
C 7.057827 1.681451 3.632015
C 6.387421 0.605379 4.482637
C 8.566956 1.720210 3.862235
H 0.794821 -0.969518 -0.199214
H 0.865555 0.803753 0.037272
H 0.702157 -0.281415 1.451779
H 2.747074 0.634544 2.364035
H 2.972161 1.687372 0.948831
H 4.852490 2.378358 1.956935
H 7.281843 2.274820 1.560373
H 7.159729 0.519552 1.801441
H 6.640439 2.662027 3.926638
H 6.762547 -0.396999 4.216844
H 5.295130 0.603778 4.343762
H 6.586910 0.767916 5.553514
H 9.031647 0.761442 3.576522
H 8.802490 1.903389 4.922059
H 9.046602 2.514989 3.268914