24
H14 C7 O3
C 1.227578 -0.114142 -0.004336
C 2.742826 0.017219 0.081755
C 3.156028 1.218972 0.904273
O 4.585062 1.267641 0.938060
C 5.129799 2.267360 1.615375
O 4.526928 3.132310 2.200069
O 6.447954 2.157325 1.542524
C 7.213875 3.157232 2.220206
C 8.681590 2.849230 2.014437
C 9.575078 3.869963 2.707522
H 0.943567 -0.990739 -0.605050
H 0.773837 0.773926 -0.472719
H 0.777873 -0.232812 0.994446
H 3.174479 0.111613 -0.927984
H 3.178170 -0.889403 0.532683
H 2.771161 1.148890 1.934643
H 2.771423 2.154222 0.466194
H 6.951428 3.151929 3.290575
H 6.953490 4.149141 1.816592
H 8.893349 2.830571 0.932959
H 8.890109 1.837620 2.399137
H 9.397716 4.886328 2.320946
H 10.637444 3.632882 2.549065
H 9.394665 3.888614 3.794260