28
H17 C8 N1 O2
C 1.610014 -1.134878 0.725526
C 3.032822 -1.359319 0.228794
C 3.168715 -1.417626 -1.305801
C 2.761190 -0.119773 -1.994566
C 4.616618 -1.766917 -1.637818
O 5.485760 -0.915519 -1.761523
N 4.876050 -3.094425 -1.747702
C 6.210998 -3.616669 -1.915247
C 6.914075 -3.835479 -0.583071
O 8.186552 -4.356243 -0.832601
C 8.934736 -4.574114 0.326696
H 1.569655 -1.184378 1.824546
H 0.924676 -1.902458 0.330429
H 1.219105 -0.150259 0.427109
H 3.417105 -2.305058 0.646744
H 3.693995 -0.561586 0.609333
H 2.524390 -2.236263 -1.670495
H 3.376823 0.718623 -1.635529
H 1.704584 0.116622 -1.802749
H 2.893836 -0.191772 -3.084934
H 4.118779 -3.749480 -1.591649
H 6.793952 -2.905476 -2.517540
H 6.159669 -4.568241 -2.464337
H 6.316127 -4.526959 0.046691
H 6.977472 -2.871882 -0.037716
H 9.913214 -4.978856 0.031082
H 8.446034 -5.300603 1.005446
H 9.100322 -3.637742 0.894873