30
H18 C9 N1 O1 F1
C 1.009819 -0.084167 -0.135175
C 2.500647 -0.284739 -0.009504
C 3.462535 0.603100 -0.757904
C 3.296730 -0.836861 -1.161196
C 4.419789 -1.840974 -0.984096
N 5.135687 -1.686652 0.267587
C 6.342058 -2.482485 0.360451
C 7.054297 -2.209457 1.671559
O 8.220548 -2.984354 1.722778
C 8.961502 -2.812214 2.893265
C 10.182663 -3.701551 2.797305
F 10.939303 -3.552932 3.945386
H 0.650887 0.695707 0.555928
H 0.459783 -1.011514 0.093091
H 0.736892 0.223851 -1.157075
H 2.833729 -0.582680 0.991129
H 4.394858 0.872087 -0.253719
H 3.046193 1.375916 -1.411728
H 2.720904 -1.007599 -2.077965
H 4.008513 -2.865952 -1.111257
H 5.142880 -1.702145 -1.806875
H 4.517840 -1.937649 1.038180
H 7.016225 -2.211324 -0.469253
H 6.157814 -3.574779 0.275247
H 6.387811 -2.454727 2.524426
H 7.290962 -1.129589 1.746666
H 8.372449 -3.088421 3.790712
H 9.280542 -1.758378 3.020043
H 10.798922 -3.422236 1.928307
H 9.886729 -4.758141 2.702519