27
H18 C8 O1
C 0.796797 -2.913511 0.207182
C 2.294317 -2.650377 0.113768
C 3.004170 -2.532719 1.459596
C 2.891796 -3.786453 2.319119
O 4.361782 -2.243361 1.182154
C 5.050181 -1.477377 2.153060
C 4.846158 0.011262 1.899461
C 6.520348 -1.879711 2.106833
C 6.756850 -3.344958 2.446011
H 0.333016 -2.887611 -0.790637
H 0.294257 -2.152657 0.826877
H 0.577514 -3.899591 0.645093
H 2.476728 -1.712121 -0.435146
H 2.786288 -3.451263 -0.465264
H 2.550514 -1.685239 2.011628
H 3.256022 -4.666907 1.765236
H 1.851038 -3.973260 2.624033
H 3.491269 -3.684262 3.236631
H 4.660278 -1.722988 3.161178
H 5.255425 0.290533 0.915450
H 5.348794 0.615485 2.670437
H 3.776378 0.271208 1.912568
H 7.078307 -1.233209 2.804128
H 6.905574 -1.658347 1.096056
H 6.418290 -3.576478 3.469230
H 7.824829 -3.604117 2.381029
H 6.203981 -3.997151 1.753922