32
H19 C10 N1 O2
C 0.956643 0.314334 0.617553
C 1.891474 -0.010526 -0.541625
C 2.885474 1.070516 -0.931704
C 3.535548 1.995129 0.061047
C 2.543869 2.534954 -0.939290
C 2.981717 3.393629 -2.102078
N 2.897601 4.820463 -1.830847
C 3.784905 5.254653 -0.770600
C 3.057202 5.607867 -3.024981
C 2.495612 7.011363 -2.906950
O 1.788552 7.427037 -2.025404
O 2.873955 7.746129 -3.954590
C 2.378298 9.077199 -4.019129
H 0.279092 -0.531293 0.810769
H 0.329231 1.194643 0.406881
H 1.509684 0.509841 1.549633
H 1.287968 -0.259287 -1.431892
H 2.458005 -0.926175 -0.298433
H 3.540836 0.762618 -1.755337
H 4.591481 2.241887 -0.086789
H 3.225748 1.946614 1.108695
H 1.563076 2.813123 -0.538029
H 4.011816 3.092391 -2.405526
H 2.328087 3.180522 -2.964291
H 3.541256 4.745472 0.171855
H 3.668967 6.334249 -0.601010
H 4.855139 5.054025 -1.001451
H 2.507237 5.136736 -3.856772
H 4.111643 5.691593 -3.368124
H 2.785524 9.513388 -4.938558
H 2.711382 9.663204 -3.149997
H 1.279051 9.087173 -4.057447