33
H21 C10 N1 O1
C 8.666876 -3.232825 3.014724
O 7.994655 -3.643090 1.859256
C 6.582022 -3.542701 1.911719
C 5.960039 -4.689963 2.695069
C 6.105601 -3.504930 0.467378
N 6.670048 -2.351279 -0.203008
C 6.372063 -2.122048 -1.612820
C 4.888436 -1.832109 -1.826446
C 6.862108 -3.184738 -2.615850
C 8.168115 -3.968310 -2.349595
C 7.506026 -5.215079 -2.975094
C 6.127373 -4.537197 -2.808832
H 9.746314 -3.303656 2.817871
H 8.437091 -3.866240 3.891547
H 8.428579 -2.184243 3.278844
H 6.311265 -2.578349 2.387164
H 6.212855 -5.655819 2.229831
H 4.864295 -4.589927 2.718464
H 6.314229 -4.705756 3.736444
H 5.005375 -3.447084 0.460155
H 6.379243 -4.476369 0.007290
H 7.677405 -2.373477 -0.062171
H 6.922308 -1.197319 -1.861466
H 4.266784 -2.722541 -1.641328
H 4.702154 -1.511300 -2.863002
H 4.548029 -1.033453 -1.149525
H 6.931790 -2.691887 -3.600427
H 8.350895 -4.102459 -1.272118
H 9.091918 -3.590102 -2.813904
H 7.660549 -6.176883 -2.463298
H 7.777070 -5.337575 -4.034902
H 5.604406 -4.874227 -1.902920
H 5.425856 -4.604988 -3.654501