29
H19 C9 N1
C 0.784983 -1.108224 -0.089295
C 1.830813 -0.016695 0.114631
C 3.069720 -0.416530 0.914292
C 2.823590 -1.138908 2.256081
N 3.131084 -2.419269 1.613031
C 3.859952 -3.404688 2.377694
C 3.790481 -4.830359 1.821479
C 4.315471 -4.931246 0.389910
C 4.538719 -5.787161 2.748701
C 3.770358 -1.723896 0.488998
H -0.064040 -0.723422 -0.675472
H 0.385731 -1.476957 0.868309
H 1.196509 -1.973437 -0.631970
H 1.360694 0.845872 0.618568
H 2.164173 0.354051 -0.870469
H 3.742061 0.449974 0.989042
H 1.816601 -1.065585 2.704666
H 3.569193 -0.849623 3.023707
H 3.431886 -3.411303 3.394462
H 4.930718 -3.109864 2.490727
H 2.723806 -5.117494 1.812551
H 5.351926 -4.558649 0.320290
H 3.697999 -4.351715 -0.311702
H 4.312948 -5.977458 0.044501
H 5.614249 -5.543286 2.782593
H 4.445270 -6.829112 2.404573
H 4.152203 -5.737679 3.779360
H 3.539068 -2.117790 -0.515341
H 4.873013 -1.666348 0.593535