28
H17 C8 N1 O2
C 0.915712 0.543419 0.166891
O 2.144473 -0.130689 0.221521
C 2.860481 0.005961 1.407852
C 2.562326 -1.135541 2.380101
N 1.204787 -1.150495 2.868947
C 0.862307 -0.088188 3.802162
C -0.497380 -0.516712 4.368059
C -0.527675 -2.051840 4.178380
C 0.829226 -2.379790 3.548261
O 4.212350 -0.037613 1.059866
C 5.046188 0.789087 1.824312
H 0.536358 0.454637 -0.861322
H 1.027076 1.619476 0.401935
H 0.173497 0.107198 0.856073
H 2.627145 0.988131 1.872479
H 3.297534 -1.085994 3.217030
H 2.756965 -2.069795 1.830095
H 0.827501 0.892762 3.303746
H 1.619354 -0.019334 4.616578
H -1.315700 -0.039203 3.809574
H -0.603566 -0.217487 5.420437
H -1.344379 -2.341714 3.501129
H -0.676275 -2.594476 5.122646
H 0.793720 -3.224848 2.843045
H 1.569095 -2.639424 4.339759
H 6.073928 0.654546 1.458954
H 5.028241 0.532345 2.899957
H 4.775180 1.857000 1.720726