24
H15 C7 N1 O1
C 0.591042 0.754109 -2.181144
C 1.955737 0.087639 -2.345163
C 1.839156 -1.428822 -2.186821
C 2.975178 0.672148 -1.345461
C 4.427270 0.238007 -1.593607
N 5.029304 0.869130 -2.760512
C 4.880532 2.317270 -2.696342
C 3.443616 2.743448 -2.424926
O 2.921791 2.092401 -1.286230
H -0.137212 0.334633 -2.893074
H 0.644173 1.839301 -2.346976
H 0.196756 0.591967 -1.163417
H 2.313192 0.290339 -3.370624
H 1.530575 -1.695641 -1.161728
H 2.785211 -1.948958 -2.399034
H 1.082604 -1.832715 -2.877417
H 2.676180 0.338234 -0.336703
H 4.499063 -0.855224 -1.687336
H 5.019922 0.523839 -0.707431
H 4.581562 0.519303 -3.607256
H 5.237795 2.771319 -3.633807
H 5.523943 2.694512 -1.881454
H 2.819064 2.540345 -3.317784
H 3.386342 3.824286 -2.223946