31
H19 C9 N1 O2
C 0.490247 0.447720 -0.343800
C 1.930354 0.068019 -0.047825
C 2.268474 -1.334439 -0.542133
O 2.744775 1.056952 -0.647128
C 4.099084 1.037239 -0.289368
C 4.717685 2.353720 -0.762878
N 6.127227 2.556205 -0.528461
C 7.081495 1.792944 -1.311525
C 7.603483 0.557495 -0.581053
O 8.102589 0.897938 0.693243
C 7.113819 1.505888 1.494321
C 6.580567 2.774447 0.832810
H -0.205192 -0.249004 0.147155
H 0.300696 0.420626 -1.428831
H 0.278902 1.464919 0.018210
H 2.087848 0.098919 1.050722
H 2.174471 -1.384904 -1.639102
H 1.580887 -2.071449 -0.100206
H 3.292178 -1.630588 -0.268011
H 4.628763 0.183057 -0.753082
H 4.209859 0.933323 0.808980
H 4.158850 3.175456 -0.283031
H 4.526847 2.438321 -1.846531
H 7.952184 2.436710 -1.543739
H 6.626178 1.499582 -2.269806
H 8.432363 0.100130 -1.142403
H 6.799853 -0.199864 -0.482389
H 7.581295 1.743080 2.462080
H 6.286031 0.792362 1.681042
H 7.401715 3.517417 0.823721
H 5.761843 3.198209 1.434379