21
H13 C6 N1 O1
C 0.961170 -0.098580 0.166694
N 2.398763 -0.097076 0.169556
C 3.107369 0.976204 0.869693
C 4.169050 -0.046594 1.324853
C 5.434767 -0.067895 0.480440
C 6.386354 -1.196574 0.853210
O 7.568418 -1.194414 0.088982
C 3.109228 -1.108997 0.953875
H 0.581396 0.768206 -0.397501
H 0.524885 -0.056826 1.190296
H 0.583129 -1.009488 -0.324373
H 2.532518 1.389317 1.723832
H 3.446119 1.814359 0.235413
H 4.424696 -0.003281 2.393968
H 5.969174 0.891384 0.588194
H 5.158402 -0.162227 -0.585630
H 5.861009 -2.169398 0.778780
H 6.694620 -1.085980 1.905909
H 7.319024 -1.321237 -0.833944
H 2.536316 -1.452182 1.839528
H 3.444031 -1.996372 0.388067