18
H11 C5 N1 O1
O 0.919503 0.052739 -0.242469
C 2.291412 0.126552 0.066579
C 3.040850 0.322197 -1.250147
N 4.476554 0.419790 -1.176343
C 5.157733 1.441135 -0.377582
C 6.300313 0.436335 -0.135904
C 5.309732 -0.643523 -0.610934
H 0.432252 -0.068493 0.579190
H 2.641162 -0.796313 0.568042
H 2.504401 0.969120 0.752233
H 2.650023 1.235963 -1.730789
H 2.779994 -0.517800 -1.917266
H 4.634937 1.710160 0.561283
H 5.397090 2.373866 -0.917297
H 6.679293 0.349038 0.890721
H 7.142068 0.575178 -0.828357
H 4.845606 -1.184520 0.237013
H 5.671779 -1.390524 -1.338614