20
H10 C5 N1 O1 F3
C 1.088999 0.063468 0.155201
N 2.517704 0.173918 -0.058489
C 2.849291 0.057808 -1.465559
C 3.052615 1.363817 0.570485
C 4.572037 1.338189 0.743831
O 5.300393 1.596547 -0.423409
C 5.019174 2.320099 1.826305
F 4.693937 3.584366 1.511284
F 4.460527 2.050323 3.012214
F 6.342795 2.288861 1.996144
H 0.719055 -0.883490 -0.266686
H 0.513573 0.890190 -0.318062
H 0.860393 0.066958 1.231928
H 2.447628 -0.885871 -1.864675
H 3.936729 0.055831 -1.610563
H 2.426703 0.890279 -2.072906
H 2.601981 1.445255 1.570487
H 2.774341 2.295258 0.022898
H 4.866725 0.339169 1.100959
H 4.911278 2.366816 -0.859538