30
H18 C9 N1 O1 F1
C -1.764210 -0.000028 -0.497222
C -0.583651 -0.020903 0.460552
C 0.501683 1.047202 0.171894
C 1.412800 -0.042283 -0.433389
N 1.401158 -0.017968 -1.884207
C 2.217988 -1.045997 -2.495358
C 2.026271 -1.051768 -3.999735
O 2.836938 -2.050187 -4.556559
C 2.730460 -2.154754 -5.944436
C 3.656136 -3.265508 -6.392494
F 3.570912 -3.395999 -7.766696
C 0.470738 -1.117182 0.161802
H -2.384052 0.898966 -0.346007
H -2.408024 -0.883306 -0.354067
H -1.412390 -0.000645 -1.540793
H -0.948088 -0.019650 1.499967
H 0.925424 1.487364 1.085992
H 0.217365 1.861341 -0.514325
H 2.444967 -0.064784 -0.026440
H 1.720717 0.898198 -2.198003
H 1.912365 -2.029087 -2.100521
H 3.300153 -0.937131 -2.269714
H 2.289526 -0.058763 -4.419696
H 0.958635 -1.229894 -4.236767
H 3.017601 -1.208927 -6.446130
H 1.692884 -2.390432 -6.254971
H 3.368354 -4.221398 -5.927303
H 4.698710 -3.034808 -6.122758
H 0.880504 -1.579075 1.071893
H 0.159635 -1.915065 -0.531102