30
H19 C9 N1 O1
C 0.912639 -0.567652 -0.091076
O 2.291172 -0.749111 -0.216895
C 2.840704 -0.078825 -1.314406
C 4.334521 -0.338612 -1.356070
N 4.933709 0.330390 -2.494005
C 6.361191 0.110786 -2.636667
C 6.722156 -1.326725 -3.041694
C 8.065534 -1.223195 -3.801885
C 8.340771 0.285542 -3.960913
C 6.983886 0.963809 -3.749648
C 7.060891 2.454467 -3.455108
H 0.572276 -1.129621 0.790508
H 0.362040 -0.940076 -0.977466
H 0.645130 0.498419 0.049344
H 2.649140 1.013300 -1.242410
H 2.381277 -0.421188 -2.264141
H 4.493909 -1.425416 -1.445552
H 4.779354 -0.032302 -0.384759
H 4.766213 1.331856 -2.403176
H 6.902884 0.354482 -1.692652
H 5.923264 -1.700652 -3.702930
H 6.775115 -2.007042 -2.179067
H 7.988563 -1.712887 -4.784292
H 8.883479 -1.725514 -3.264640
H 8.793313 0.542301 -4.930849
H 9.037867 0.633202 -3.178967
H 6.363684 0.805832 -4.651893
H 7.632551 2.642562 -2.530755
H 6.061612 2.902439 -3.331438
H 7.560097 2.995379 -4.274625