23
H15 C7 N1
C 0.753507 0.263258 -0.184244
C 2.258314 0.104672 -0.327843
N 2.964068 1.192378 0.327763
C 4.405572 1.170518 0.186803
C 5.073959 2.387551 0.839126
C 6.560426 2.011428 0.991680
C 6.630242 0.473178 0.803153
C 5.175549 -0.004847 0.815976
H 0.218773 -0.540941 -0.712141
H 0.423028 1.230362 -0.594357
H 0.452875 0.225154 0.875821
H 2.531096 0.117337 -1.397685
H 2.556135 -0.896185 0.050576
H 2.727851 1.195655 1.320870
H 4.631837 1.180442 -0.896641
H 4.612258 2.539778 1.830270
H 4.911905 3.310685 0.263046
H 6.946542 2.316569 1.975757
H 7.180255 2.523498 0.240239
H 7.244576 -0.020864 1.570497
H 7.086668 0.233918 -0.170618
H 4.815626 -0.139477 1.852427
H 5.031579 -0.958867 0.286575