19
H10 C5 O4
C 9.330560 0.192088 -5.601156
O 8.767703 1.080749 -4.671753
C 8.233671 0.438324 -3.579652
O 7.728030 1.474594 -2.757952
C 7.131177 1.113070 -1.623378
O 7.007285 -0.032422 -1.269177
C 6.569438 2.314719 -0.871426
C 5.064839 2.401227 -1.127257
O 7.239247 3.505195 -1.168909
H 9.725767 0.789789 -6.432809
H 8.580005 -0.516176 -5.999513
H 10.159327 -0.393124 -5.160319
H 8.995382 -0.137657 -3.017472
H 7.407988 -0.246337 -3.858024
H 6.741599 2.108261 0.195854
H 4.864222 2.569999 -2.197585
H 4.647096 3.242171 -0.555703
H 4.556709 1.476380 -0.818098
H 7.212823 3.630550 -2.126222