22
H14 C6 O2
C 1.034735 0.024429 -0.192104
C 2.537601 0.125833 -0.052192
O 3.136915 -0.299673 -1.248783
C 4.551333 -0.281060 -1.256831
C 5.121200 -1.532366 -0.597000
C 4.974750 -0.119740 -2.713196
C 6.477889 -0.011707 -2.935375
O 6.801177 0.328911 -4.262956
H 0.540216 0.367847 0.728809
H 0.731112 -1.016664 -0.381134
H 0.679700 0.645027 -1.029179
H 2.876018 -0.487505 0.805660
H 2.831487 1.171899 0.170778
H 4.902786 0.607456 -0.692795
H 4.855918 -2.428597 -1.180556
H 4.727502 -1.655654 0.423118
H 6.217535 -1.478818 -0.519534
H 4.499361 0.790694 -3.111799
H 4.575811 -0.972736 -3.291568
H 6.981541 -0.949865 -2.633840
H 6.890861 0.788152 -2.298472
H 6.468049 -0.373883 -4.833229