39
H25 C12 N1 O1
C 6.557778 0.303057 3.509339
C 5.783115 1.100243 2.463492
C 4.568019 0.417101 1.808262
C 3.456929 0.140691 2.820204
C 4.958318 -0.807332 0.938436
C 3.993777 -1.002248 -0.237866
N 5.198490 -2.030778 1.722490
C 4.064167 -2.920296 1.867711
C 6.429920 -2.712271 1.376367
C 7.041239 -3.654328 2.434201
C 8.545022 -3.746959 2.207585
C 6.621441 -3.428136 3.900909
O 5.955578 -4.695818 3.965529
C 6.359409 -5.024840 2.633991
H 7.343530 0.929203 3.961470
H 7.046308 -0.580384 3.074457
H 5.906635 -0.045976 4.326073
H 6.479646 1.407308 1.663529
H 5.429735 2.038220 2.927341
H 4.170603 1.161969 1.095669
H 3.756647 -0.617304 3.559842
H 2.536254 -0.212817 2.330105
H 3.201456 1.061042 3.369697
H 5.928894 -0.545506 0.489031
H 2.952005 -1.138833 0.090941
H 4.276372 -1.879410 -0.840831
H 4.019779 -0.122301 -0.898404
H 3.142452 -2.352296 2.039492
H 4.196394 -3.578826 2.738723
H 3.897106 -3.567120 0.979186
H 7.179948 -1.934662 1.168821
H 6.332440 -3.304141 0.434672
H 9.026967 -2.769147 2.368187
H 8.767203 -4.069012 1.176717
H 9.007596 -4.471644 2.895256
H 5.930580 -2.588301 4.071936
H 7.461363 -3.362357 4.615478
H 5.504130 -5.249196 1.974576
H 7.050867 -5.886486 2.612436