22
H14 C6 O2
C 0.986151 -0.311393 0.023947
C 2.491433 -0.075152 -0.008305
C 3.184940 -0.557507 1.263875
C 4.705003 -0.434121 1.281510
C 5.231699 1.007192 1.274810
O 5.040795 1.691034 0.061738
O 5.162079 -1.074999 2.456289
C 6.410651 -1.695741 2.344099
H 0.503879 0.038953 -0.901884
H 0.517052 0.222933 0.866414
H 0.750394 -1.382120 0.139624
H 2.703379 0.992860 -0.163884
H 2.928151 -0.598283 -0.877486
H 2.948637 -1.623191 1.425387
H 2.783937 -0.015741 2.139416
H 5.114607 -0.955270 0.389691
H 6.301937 0.986942 1.556614
H 4.705400 1.581259 2.054519
H 5.484305 1.192583 -0.635119
H 6.669705 -2.110531 3.329044
H 7.214386 -0.996062 2.047035
H 6.393120 -2.525465 1.610958