35
H21 C11 N1 O2
C 1.189254 0.564858 0.334328
O 2.431809 -0.005960 -0.054727
C 3.150407 -0.592733 0.905746
O 2.790491 -0.664069 2.052331
C 4.480903 -1.082176 0.361121
N 5.009333 -2.230505 1.057398
C 4.560439 -3.507512 0.527681
C 3.042011 -3.655162 0.501598
C 2.553188 -5.007389 -0.034959
C 3.022113 -6.186054 0.819482
C 1.029361 -5.003020 -0.157804
C 6.413897 -2.087159 1.345567
C 7.390641 -3.221481 1.353359
C 7.487027 -2.164389 0.281169
H 0.754794 1.004885 -0.570722
H 1.334551 1.345175 1.095741
H 0.513675 -0.205089 0.735204
H 5.167312 -0.228721 0.487933
H 4.387819 -1.235724 -0.731662
H 4.975862 -4.296414 1.168358
H 4.948910 -3.689233 -0.501369
H 2.599234 -2.867814 -0.131559
H 2.649082 -3.496920 1.520847
H 2.973010 -5.135836 -1.049806
H 2.684984 -6.070423 1.863829
H 4.118083 -6.286475 0.829519
H 2.611289 -7.134672 0.438908
H 0.557173 -4.877518 0.831395
H 0.658712 -5.947160 -0.587498
H 0.679634 -4.179821 -0.801140
H 6.591134 -1.327155 2.115517
H 7.064071 -4.216537 1.044124
H 8.139410 -3.228304 2.149803
H 7.172316 -2.457526 -0.725192
H 8.310242 -1.445387 0.313582