30
H19 C9 N1 O1
C 1.316434 -1.021189 -0.365073
C 2.278022 -0.170581 0.012001
C 2.714151 0.034740 1.442724
C 2.023896 -0.817810 2.495706
C 3.015823 0.666087 -1.009323
N 4.437447 0.351700 -1.007954
C 5.240456 1.061255 -1.994876
C 5.173981 2.570019 -1.788083
C 6.702199 0.573788 -1.923316
C 6.849727 -0.937128 -2.055231
O 7.490825 1.234972 -2.892478
H 0.760526 -1.632092 0.351535
H 1.045228 -1.131109 -1.420019
H 2.579373 1.105782 1.680345
H 3.804791 -0.123419 1.480345
H 0.937725 -0.635926 2.520568
H 2.421978 -0.589325 3.495874
H 2.180481 -1.892781 2.312720
H 2.885034 1.728187 -0.741887
H 2.551550 0.529906 -2.008416
H 4.525658 -0.649682 -1.169128
H 4.887513 0.842083 -3.031421
H 5.391316 2.819343 -0.736278
H 4.187601 2.982800 -2.044511
H 5.920977 3.060892 -2.426026
H 7.109713 0.887458 -0.946967
H 6.364405 -1.300897 -2.977270
H 6.414848 -1.473000 -1.198747
H 7.917381 -1.197165 -2.102839
H 7.180599 0.950743 -3.761806