30
H19 C9 N1 O1
C 2.117078 0.988883 0.220584
C 2.526886 -0.482231 0.118478
C 1.304185 -1.391248 0.065456
N 3.392878 -0.797575 -1.016855
C 4.703437 -0.150189 -1.091035
C 5.722740 -1.254572 -1.433138
O 5.441912 -2.407775 -0.697014
C 4.712826 1.032941 -2.067518
C 5.919558 1.960134 -2.097330
C 6.981965 2.001620 -1.031444
C 7.324089 1.528588 -2.419845
H 1.475510 1.153078 1.100691
H 1.552722 1.299553 -0.674762
H 2.992812 1.648010 0.321663
H 3.102661 -0.737307 1.025752
H 0.703887 -1.182445 -0.836438
H 0.657149 -1.235284 0.941771
H 1.603152 -2.450094 0.037683
H 2.884412 -0.693299 -1.894412
H 4.940219 0.214849 -0.077509
H 6.747557 -0.929587 -1.195212
H 5.685185 -1.446930 -2.527928
H 4.465320 -2.390156 -0.669143
H 3.835185 1.651432 -1.826886
H 4.533292 0.642511 -3.086306
H 5.662059 2.941574 -2.509325
H 6.949057 1.249781 -0.237537
H 7.352770 2.977510 -0.706290
H 7.527815 0.464762 -2.565543
H 7.922222 2.186615 -3.056461