16
H10 C4 O2
C 1.058627 0.048863 -0.069187
C 2.586622 0.100010 -0.027873
C 3.115296 1.289306 -0.830210
O 3.030320 0.190491 1.318752
C 3.142289 -1.221820 -0.573726
O 4.538975 -1.271598 -0.691291
H 0.635582 0.956030 0.391835
H 0.686481 -0.823169 0.491100
H 0.680646 -0.011564 -1.101324
H 2.688508 2.231146 -0.448973
H 2.852796 1.207788 -1.896822
H 4.209883 1.353361 -0.736603
H 2.717570 1.032604 1.669710
H 2.646424 -1.436544 -1.539722
H 2.852838 -2.020447 0.127936
H 4.797803 -0.719607 -1.437372