36
H23 C10 N1 O2
C 3.446551 2.385384 2.214588
C 4.761380 1.637379 2.027232
C 4.571565 0.251548 1.415935
C 5.864405 -0.485930 1.092642
O 5.555377 -1.695742 0.446061
C 6.700606 -0.806894 2.339335
N 7.721912 -1.798166 2.019980
C 8.864148 -1.211477 1.343578
C 8.084900 -2.617682 3.166743
C 8.890107 -3.875606 2.808958
C 10.383292 -3.738875 3.089171
O 8.315116 -4.933456 3.552911
C 8.740679 -6.215989 3.196137
H 3.607413 3.378222 2.662555
H 2.762444 1.827800 2.874923
H 2.930558 2.531938 1.251674
H 5.270248 1.550834 3.002022
H 5.434184 2.230242 1.382820
H 3.997929 0.341438 0.477323
H 3.967350 -0.382089 2.089587
H 6.463907 0.163538 0.418681
H 6.306924 -2.270518 0.678715
H 6.028714 -1.243221 3.095653
H 7.134384 0.115780 2.774363
H 8.528360 -0.592367 0.499782
H 9.518184 -1.991690 0.928866
H 9.471150 -0.570238 2.017667
H 7.154538 -2.970895 3.631910
H 8.630229 -2.022450 3.932027
H 8.734874 -4.077519 1.728620
H 10.551590 -3.645604 4.174119
H 10.794480 -2.843746 2.601432
H 10.951574 -4.606457 2.722361
H 8.088778 -6.938277 3.708873
H 9.783681 -6.426542 3.497571
H 8.659249 -6.388602 2.104766