26
H17 C7 N1 O1
C 1.181328 0.352537 0.000144
C 2.640649 -0.056671 0.151646
C 2.942828 -1.564339 0.122300
C 2.330914 -2.273229 1.332484
C 2.453912 -2.202565 -1.180913
O 4.370854 -1.601485 0.173867
C 5.007415 -2.830397 0.386630
C 6.477257 -2.670791 0.037670
N 7.187301 -3.919360 0.270428
H 1.085637 1.447204 0.065535
H 0.545031 -0.077693 0.789256
H 0.765138 0.046978 -0.972144
H 3.043232 0.337292 1.099738
H 3.239592 0.403870 -0.651511
H 1.239263 -2.142090 1.347268
H 2.740369 -1.863522 2.269279
H 2.527581 -3.355746 1.310508
H 1.356191 -2.179506 -1.246432
H 2.760303 -3.257326 -1.248117
H 2.866658 -1.666696 -2.049858
H 4.581739 -3.639756 -0.235342
H 4.917461 -3.154676 1.443081
H 6.876006 -1.805564 0.604807
H 6.552393 -2.408919 -1.030279
H 7.262902 -4.086760 1.274195
H 8.147318 -3.834813 -0.059850