33
H20 C10 N1 O1 F1
C 1.871122 0.378644 1.668574
C 3.026560 0.201907 0.691310
C 2.584595 0.110520 -0.772489
N 1.788744 1.285520 -1.117379
C 1.163004 1.267456 -2.422964
C 0.146571 2.389237 -2.529803
O -0.429205 2.360683 -3.807575
C -1.382681 3.357391 -4.020264
C -1.910340 3.193061 -5.429523
F -2.858101 4.170485 -5.672941
C 3.728839 -0.122999 -1.762428
C 4.902097 0.816603 -1.831996
C 5.102729 -0.608516 -1.391007
H 2.234343 0.407042 2.707589
H 1.153937 -0.454771 1.587265
H 1.319955 1.308845 1.471114
H 3.579198 -0.714776 0.948050
H 3.740337 1.037128 0.809353
H 1.906101 -0.759165 -0.852454
H 2.378205 2.114381 -1.032992
H 0.640946 0.304373 -2.552705
H 1.873135 1.359559 -3.269984
H 0.642457 3.365618 -2.349603
H -0.625096 2.268841 -1.743844
H -0.944861 4.369275 -3.905235
H -2.221186 3.277740 -3.299768
H -2.380293 2.204987 -5.555326
H -1.095913 3.298980 -6.163306
H 3.375348 -0.474325 -2.737437
H 4.979620 1.595098 -1.066235
H 5.267599 1.118117 -2.817452
H 5.334722 -0.782720 -0.337517
H 5.601143 -1.297630 -2.078356