32
H21 C9 N1 O1
C 8.084381 3.907559 10.092022
C 6.827911 3.533549 9.303490
C 5.597918 4.193859 9.930952
C 6.986611 3.887615 7.811674
C 6.418616 2.873208 6.812359
C 4.922294 2.627133 6.976448
N 6.714662 3.352242 5.466967
C 6.545444 2.388126 4.400008
C 7.197057 2.901341 3.118645
C 7.019555 1.941756 1.953062
O 8.565394 3.200823 3.342279
H 7.975491 3.663721 11.161107
H 8.286710 4.989646 10.015540
H 8.970825 3.374257 9.713221
H 6.703993 2.437716 9.381165
H 5.710661 5.291358 9.935698
H 5.459832 3.868336 10.974631
H 4.674020 3.959704 9.382603
H 8.060634 3.993929 7.579112
H 6.534546 4.874674 7.606068
H 6.933673 1.902709 7.003434
H 4.357580 3.563545 6.836621
H 4.691866 2.221450 7.972284
H 4.555717 1.896031 6.239965
H 7.687277 3.656751 5.435182
H 5.475878 2.206976 4.202780
H 6.992166 1.395960 4.646978
H 6.731885 3.869729 2.870462
H 7.473310 0.962374 2.180576
H 7.503707 2.343441 1.050713
H 5.953858 1.778864 1.731880
H 9.021289 2.364544 3.505323