26
H17 C7 N1 O1
C 1.146896 -0.359123 0.203415
C 2.645720 -0.200524 -0.015280
C 2.999806 1.019881 -0.855643
N 4.437867 1.156595 -0.997103
C 4.909336 2.177872 -1.921237
C 4.508651 3.599613 -1.497637
C 3.219558 4.134395 -2.114831
C 6.434242 2.045125 -2.002560
O 7.025230 2.926149 -2.921043
H 0.923049 -1.249673 0.810302
H 0.611239 -0.465258 -0.753951
H 0.724568 0.514922 0.725294
H 3.046594 -1.104224 -0.508183
H 3.166189 -0.119748 0.953904
H 2.596484 1.918794 -0.359689
H 2.481772 0.950227 -1.838832
H 4.812943 0.257161 -1.297972
H 4.514007 2.007002 -2.951567
H 5.329461 4.273135 -1.790325
H 4.455405 3.624609 -0.395382
H 3.296278 4.164975 -3.213910
H 3.016518 5.160660 -1.770378
H 2.341354 3.521444 -1.863527
H 6.691431 0.991918 -2.233494
H 6.864103 2.272775 -1.013484
H 6.670839 2.724150 -3.795418