39
H25 C12 N1 O1
C 2.499284 3.239848 -1.711561
C 2.226271 2.352216 -0.499799
C 3.191352 1.158717 -0.368540
C 2.503075 -0.047073 0.270565
C 4.464417 1.484003 0.425842
N 5.171611 2.676958 0.019051
C 4.863306 3.964895 0.650903
C 6.354517 4.312091 0.661802
O 6.681971 5.171669 -0.388683
C 8.052156 5.466226 -0.480088
C 8.296847 6.438012 -1.627215
C 7.528552 7.742290 -1.426298
C 9.794572 6.685321 -1.793590
C 6.585795 2.810980 0.381171
H 1.859866 4.136738 -1.709249
H 2.296887 2.690211 -2.645577
H 3.550205 3.561728 -1.744345
H 1.193528 1.970841 -0.572214
H 2.253923 2.949278 0.429328
H 3.505934 0.871539 -1.388460
H 2.109608 0.208506 1.269174
H 3.198151 -0.893522 0.393036
H 1.656658 -0.393621 -0.342638
H 5.159391 0.634506 0.317360
H 4.204490 1.537417 1.509495
H 4.448197 3.857979 1.672578
H 4.220861 4.647709 0.071518
H 6.765839 4.687109 1.615933
H 8.639420 4.540575 -0.642059
H 8.411192 5.911634 0.472467
H 7.920037 5.950741 -2.544071
H 7.879275 8.266354 -0.520635
H 6.451515 7.553364 -1.311152
H 7.668675 8.421021 -2.282359
H 10.220624 7.153768 -0.890279
H 9.990227 7.359888 -2.641448
H 10.343332 5.747844 -1.976934
H 6.860817 2.258291 1.300967
H 7.303153 2.555531 -0.417257