29
H16 C8 N1 O1 F3
C 2.505834 4.019092 0.559667
C 2.389060 2.527918 0.836897
C 3.061525 1.666142 -0.240706
C 2.760198 0.185938 0.036508
C 3.277540 -0.794449 -0.981268
F 2.913980 -0.478762 -2.235008
F 4.618967 -0.894956 -0.984679
F 2.810543 -2.030515 -0.745397
N 4.487187 1.965250 -0.331310
C 5.027556 2.171999 -1.658881
C 6.501909 2.576071 -1.632434
C 7.406507 1.504076 -1.038558
O 6.921407 2.933939 -2.933939
H 2.050792 4.613804 1.366442
H 2.001750 4.289347 -0.382679
H 3.562610 4.313092 0.472084
H 1.326785 2.241904 0.915118
H 2.852006 2.288057 1.810451
H 2.601248 1.926846 -1.209085
H 3.178519 -0.114587 1.010432
H 1.672569 0.031797 0.086975
H 5.027775 1.272332 0.179330
H 4.469692 2.990037 -2.142563
H 4.930923 1.286008 -2.324635
H 6.591091 3.493593 -1.027055
H 7.297266 0.554936 -1.590394
H 7.176315 1.312520 0.020782
H 8.457648 1.822846 -1.101231
H 6.896728 2.134877 -3.475425