39
H25 C12 N1 O1
C 0.943973 0.109780 0.418532
C 2.085841 0.703193 0.767452
C 2.904626 1.602434 -0.118891
N 4.326428 1.258032 -0.133850
C 4.723358 0.574303 -1.356438
C 3.987830 -0.743695 -1.581606
C 4.519274 -1.506730 -2.791307
C 3.783984 -2.818999 -3.052695
C 4.323443 -3.584422 -4.254988
C 5.175744 2.362713 0.324503
C 4.952400 2.610196 1.815822
C 6.660819 2.102184 0.067723
O 7.404366 3.150268 0.622414
C 8.779711 3.014489 0.421992
H 0.382192 -0.512152 1.121911
H 0.525833 0.223889 -0.588408
H 2.485480 0.561731 1.779569
H 2.782796 2.637976 0.241933
H 2.485820 1.601969 -1.142538
H 5.793874 0.334025 -1.301234
H 4.592266 1.221656 -2.254730
H 2.907972 -0.568050 -1.714988
H 4.090573 -1.361101 -0.672085
H 5.595665 -1.714571 -2.651393
H 4.448227 -0.866077 -3.689156
H 2.710172 -2.608392 -3.200331
H 3.847023 -3.454009 -2.151617
H 4.242435 -2.986556 -5.177629
H 3.772021 -4.523668 -4.416992
H 5.386952 -3.841119 -4.119799
H 4.925758 3.298298 -0.225560
H 5.231539 1.711649 2.390132
H 3.902343 2.845445 2.041357
H 5.568929 3.451126 2.159750
H 6.868805 2.038134 -1.016753
H 6.952764 1.129505 0.518994
H 9.278827 3.875329 0.889289
H 9.042765 2.998303 -0.654006
H 9.175711 2.087714 0.881433