17
H11 C5 N1
C 2.344522 0.107944 -1.345330
C 2.396388 -0.173309 0.141209
C 3.398720 -1.209520 0.686252
N 3.673753 -0.314153 1.821511
C 3.110275 0.829515 1.076925
C 2.285909 1.807890 1.886471
H 1.930052 -0.749619 -1.899476
H 3.349638 0.314978 -1.747158
H 1.708266 0.981582 -1.560924
H 1.385301 -0.382138 0.528169
H 4.256267 -1.342341 -0.000911
H 3.012995 -2.207151 0.956345
H 4.657216 -0.223032 2.070263
H 3.884761 1.380244 0.505563
H 1.509207 1.276694 2.459242
H 1.795192 2.543245 1.228461
H 2.917257 2.363170 2.599086