20
H12 C6 O2
O 0.948391 -0.127251 0.055933
C 2.349143 -0.043309 0.168993
C 2.872021 0.899187 -0.897848
C 4.388053 1.060163 -0.863098
C 4.902499 2.030286 -1.911519
C 4.645721 3.530061 -1.687777
O 6.043285 3.829342 -1.724532
C 6.379876 2.445035 -1.843414
H 0.628453 -0.725809 0.739345
H 2.823986 -1.037268 0.044549
H 2.651223 0.330209 1.167997
H 2.386143 1.881647 -0.765785
H 2.557125 0.523263 -1.886471
H 4.870082 0.078216 -1.013605
H 4.703056 1.411585 0.135992
H 4.602231 1.697688 -2.916782
H 4.191865 3.777032 -0.709564
H 4.083075 4.056491 -2.477602
H 6.921560 2.068129 -0.956006
H 6.988492 2.236744 -2.740026