23
H15 C7 N1
C 1.327425 -0.259042 0.422863
C 2.310322 0.241712 -0.327591
C 3.107272 -0.525129 -1.341699
C 4.603763 -0.551760 -1.021712
C 5.423929 -1.294858 -2.067465
N 6.838124 -1.274031 -1.746433
C 7.670494 -1.978973 -2.704631
C 9.132873 -1.951847 -2.293261
H 0.790533 0.358777 1.149208
H 1.019662 -1.307618 0.337194
H 2.586680 1.297662 -0.203767
H 2.967597 -0.057932 -2.333423
H 2.720694 -1.555315 -1.418780
H 4.755294 -1.026359 -0.035738
H 4.989731 0.478265 -0.935042
H 5.283233 -0.811687 -3.051198
H 5.026683 -2.329160 -2.177735
H 6.972698 -1.691298 -0.825162
H 7.553758 -1.489825 -3.687763
H 7.346803 -3.033549 -2.850396
H 9.486972 -0.915026 -2.182257
H 9.762717 -2.456033 -3.041635
H 9.281631 -2.465564 -1.329156