30
H17 C9 N1 O1 F2
C 6.736036 -0.887381 -2.451457
O 6.190347 -0.012454 -1.508236
C 4.790282 0.055470 -1.554234
C 4.268409 1.115228 -0.589326
C 2.745361 1.132151 -0.622943
N 4.787956 2.429165 -0.945625
C 6.054995 2.804711 -0.348901
C 6.763777 3.867421 -1.165005
C 6.968827 3.456053 -2.603060
F 5.909740 3.824547 -3.378610
F 8.053531 4.069096 -3.160690
C 6.507107 5.324731 -0.889475
C 7.812549 4.702509 -0.484511
H 7.829049 -0.876476 -2.334860
H 6.489708 -0.583433 -3.487471
H 6.378214 -1.925619 -2.307225
H 4.351656 -0.931461 -1.299670
H 4.453379 0.316248 -2.578759
H 4.589076 0.823591 0.432837
H 2.383735 1.436038 -1.618924
H 2.349659 1.845824 0.115955
H 2.329588 0.140132 -0.393445
H 4.093828 3.150252 -0.766719
H 6.692906 1.910282 -0.320876
H 5.956483 3.164420 0.696254
H 7.099135 2.366873 -2.704798
H 5.778701 5.566629 -0.110275
H 6.514507 6.012757 -1.739558
H 7.985979 4.502845 0.576479
H 8.704423 4.970467 -1.054231