32
H21 C9 N1 O1
C 0.654982 -0.439344 -0.050156
C 2.142528 -0.209362 0.190523
C 2.980956 -1.451854 -0.096014
C 4.491225 -1.275768 0.031491
C 4.944496 -0.756479 1.405412
N 5.061927 0.690800 1.425347
C 5.252475 1.282275 2.746069
C 6.619130 0.915437 3.318207
C 5.089773 2.793812 2.636281
O 5.060863 -2.539178 -0.245123
C 6.370821 -2.492727 -0.729741
H 0.067209 0.464829 0.171093
H 0.271198 -1.252516 0.587163
H 0.459380 -0.718698 -1.098080
H 2.290516 0.110258 1.236277
H 2.491577 0.625742 -0.442563
H 2.772423 -1.808801 -1.118624
H 2.679411 -2.266135 0.586604
H 4.839383 -0.542760 -0.725581
H 5.928278 -1.199591 1.626338
H 4.250731 -1.141832 2.186014
H 4.225573 1.100265 1.014688
H 4.481335 0.906228 3.456157
H 7.418715 1.237160 2.630537
H 6.722705 -0.168342 3.478863
H 6.776017 1.408384 4.289844
H 5.845109 3.214015 1.952372
H 5.204766 3.275647 3.618804
H 4.093066 3.056898 2.246060
H 6.711772 -3.527141 -0.881265
H 7.071703 -2.001860 -0.027689
H 6.432467 -1.958370 -1.697878