25
H16 C7 N2
C 2.912067 1.328858 0.311899
C 2.436884 -0.067814 -0.063905
N 0.977468 -0.113094 -0.017249
C 3.080090 -1.165419 0.799420
N 4.535665 -1.212215 0.699142
C 5.099534 -2.554322 0.599266
C 5.216564 -3.079808 2.045774
C 5.368908 -1.793666 2.887442
C 5.234052 -0.648215 1.852759
H 4.002486 1.420120 0.203359
H 2.650342 1.562977 1.358432
H 2.435001 2.082495 -0.333079
H 2.744530 -0.263474 -1.106975
H 0.670984 0.042680 0.945066
H 0.655779 -1.052934 -0.251158
H 2.662857 -2.129991 0.464855
H 2.736807 -1.029575 1.846888
H 6.104258 -2.482365 0.147300
H 4.490322 -3.192595 -0.056515
H 6.060247 -3.775419 2.165736
H 4.301630 -3.623832 2.327077
H 6.332511 -1.744135 3.415569
H 4.578489 -1.726578 3.650011
H 6.235279 -0.311396 1.534078
H 4.704678 0.230378 2.245230