21
H13 C6 N1 O1
C 6.684884 -2.108012 -0.961557
N 6.328328 -0.704133 -0.930316
C 4.902246 -0.470653 -1.015583
C 4.523552 0.991652 -0.772598
O 3.121043 1.132621 -0.783481
C 5.218373 1.940543 -1.739664
C 4.676749 2.160407 -3.125602
C 4.600953 3.258932 -2.097665
H 7.779951 -2.217087 -0.960190
H 6.290648 -2.655275 -1.844044
H 6.299535 -2.617495 -0.062938
H 6.792996 -0.232455 -1.704130
H 4.399147 -1.077401 -0.244195
H 4.468845 -0.786454 -1.993893
H 4.843862 1.259234 0.248377
H 2.788893 0.755004 -1.607846
H 6.308880 1.931488 -1.644094
H 3.741156 1.664359 -3.404313
H 5.389255 2.261551 -3.948446
H 3.616560 3.472997 -1.673435
H 5.257503 4.125408 -2.212755