25
H16 C7 O2
C 1.005123 -0.100330 -0.039277
C 2.528686 -0.069993 -0.024608
C 3.156822 -1.256603 -0.749789
C 4.672505 -1.223433 -0.734908
O 5.170603 -2.344947 -1.414965
C 6.565380 -2.411314 -1.455698
C 6.999621 -3.650681 -2.232554
C 6.492598 -3.645258 -3.665669
O 8.403566 -3.782004 -2.166163
H 0.580157 0.766267 0.490404
H 0.620061 -1.011344 0.447089
H 0.616272 -0.085609 -1.070473
H 2.886630 -0.050067 1.019529
H 2.882770 0.868241 -0.486262
H 2.814515 -1.279722 -1.798758
H 2.820707 -2.200549 -0.287250
H 5.044013 -1.211666 0.310785
H 5.039423 -0.290779 -1.211614
H 6.994590 -2.461358 -0.434865
H 6.991230 -1.506914 -1.943377
H 6.591275 -4.531854 -1.710171
H 6.893001 -2.774095 -4.212346
H 5.395272 -3.586430 -3.690404
H 6.810533 -4.559277 -4.189241
H 8.787985 -3.065591 -2.687055