31
H19 C10 N1 O1
C -1.586295 0.181119 -0.051009
C -0.629698 1.270836 0.427691
C 0.737432 1.129298 -0.232486
N 1.301555 -0.193464 -0.004096
C 2.667144 -0.310752 -0.475606
C 3.449918 -1.378490 0.271657
O 4.765583 -1.383473 -0.225721
C 5.577518 -2.334713 0.365522
C 5.515141 -3.754199 -0.125214
C 6.695789 -2.870577 -0.459980
C 0.431242 -1.239450 -0.524905
C -0.946659 -1.193939 0.125740
H -1.811809 0.340759 -1.120727
H -2.545054 0.238982 0.488380
H -0.502232 1.195259 1.521395
H -1.036697 2.272170 0.215641
H 1.430434 1.881481 0.175612
H 0.640561 1.339689 -1.323820
H 3.180809 0.649681 -0.314355
H 2.719446 -0.519747 -1.566946
H 2.990642 -2.376938 0.144103
H 3.436328 -1.148632 1.354982
H 5.755056 -2.178589 1.439434
H 4.807584 -3.962516 -0.932961
H 5.650668 -4.564627 0.595912
H 6.762125 -2.496940 -1.485447
H 7.654834 -3.063781 0.027267
H 0.894862 -2.220543 -0.344474
H 0.318808 -1.138917 -1.630510
H -0.838608 -1.417190 1.201131
H -1.582345 -1.981896 -0.308121