35
H23 C11 N1
C 1.134357 -0.080840 0.122471
C 2.654841 -0.056432 0.022457
C 3.163519 0.657785 -1.226506
C 4.682730 0.691358 -1.326260
N 5.134974 1.361978 -2.520629
C 4.963574 2.815641 -2.618340
C 6.353603 2.920005 -3.297294
C 7.320219 4.011687 -2.827186
C 7.384935 4.282572 -1.327839
C 6.204682 2.921037 -4.825970
C 7.499961 2.735925 -5.608973
C 6.576408 1.489389 -2.743567
H 0.797795 -0.603255 1.031419
H 0.686123 -0.594703 -0.743552
H 0.720600 0.940455 0.151713
H 3.041936 -1.090448 0.032091
H 3.074968 0.433836 0.918106
H 2.776677 1.692804 -1.235992
H 2.760851 0.168823 -2.130781
H 5.075432 -0.340440 -1.342119
H 5.100946 1.173145 -0.410369
H 4.923725 3.306674 -1.626851
H 4.094630 3.154237 -3.209449
H 7.064524 4.950776 -3.349623
H 8.329655 3.738599 -3.178860
H 6.444568 4.705228 -0.942082
H 8.183578 5.007246 -1.105699
H 7.600972 3.369500 -0.750772
H 5.724667 3.869385 -5.126776
H 5.498159 2.118601 -5.097169
H 8.181493 3.592417 -5.492474
H 7.291814 2.628341 -6.684779
H 8.040785 1.831303 -5.286122
H 7.161325 1.484313 -1.802364
H 7.015763 0.742200 -3.427981