34
H21 C11 N1 O1
C 0.921761 -0.263078 -0.040859
C 2.398569 0.026130 0.161201
C 2.762712 0.159291 1.635880
O 3.110245 -1.019949 -0.471113
C 4.489833 -0.820407 -0.613997
C 4.999363 -1.850302 -1.612764
N 6.443045 -1.956770 -1.657367
C 6.849727 -3.226166 -2.289594
C 8.377995 -3.472057 -2.408471
C 8.839553 -2.173318 -3.016702
C 9.837093 -1.059737 -2.841454
C 8.563428 -1.068519 -2.036495
C 7.105493 -0.714717 -2.114678
H 0.306057 0.547750 0.375738
H 0.641749 -1.203787 0.459718
H 0.691978 -0.360242 -1.112371
H 2.647089 0.980760 -0.348193
H 2.572012 -0.789670 2.162983
H 2.158129 0.947578 2.109530
H 3.821567 0.424984 1.773939
H 5.032585 -0.959041 0.341603
H 4.688562 0.213437 -0.957509
H 4.560405 -1.633277 -2.613189
H 4.588009 -2.822042 -1.296997
H 6.428951 -3.300059 -3.318156
H 6.384795 -4.038149 -1.708129
H 8.540892 -4.367931 -3.030321
H 8.833425 -3.652201 -1.422398
H 8.291170 -1.998852 -3.952135
H 9.962600 -0.419048 -3.719200
H 10.745758 -1.182651 -2.244791
H 8.785474 -1.395347 -1.014043
H 6.803684 -0.419023 -3.142402
H 6.810833 0.098369 -1.432904