26
H14 C7 N1 O1 F3
C 5.907144 -1.311614 -0.793162
C 5.025286 -0.096857 -1.045646
N 5.598477 1.133985 -0.523682
C 6.810781 1.606410 -1.170111
C 8.015624 1.558873 -0.232871
O 9.180284 2.080469 -0.821107
C 4.714346 2.147144 0.000162
C 3.982516 1.721589 1.270996
C 3.718240 2.686457 -1.034936
F 2.732112 1.819797 -1.316548
F 3.126394 3.812054 -0.604354
F 4.310646 2.979876 -2.201175
H 5.427033 -2.221184 -1.186212
H 6.079484 -1.447060 0.286051
H 6.887085 -1.215332 -1.286427
H 4.054254 -0.262823 -0.558736
H 4.813397 -0.015256 -2.132556
H 6.699181 2.639235 -1.539953
H 7.020756 0.989443 -2.061498
H 8.158678 0.520694 0.124694
H 7.802116 2.174920 0.655907
H 9.416958 1.510593 -1.562360
H 5.334977 3.021692 0.250168
H 3.317606 0.863518 1.097594
H 3.374604 2.546131 1.669761
H 4.725821 1.437407 2.028113