30
H19 C9 N1 O1
C 1.037918 -0.028760 -0.914803
C 2.474373 0.179332 -0.427665
C 3.058383 1.411415 -1.125044
C 2.512771 0.237645 1.119718
N 1.886886 -0.976558 1.647881
C 1.348227 -0.904282 2.987400
C 0.597077 -2.183688 3.335538
O 0.022740 -2.141239 4.616720
C 3.877170 0.439267 1.790915
C 5.205950 0.128922 1.156235
C 4.867819 1.544180 1.549722
H 1.012678 -0.154257 -2.008756
H 0.414085 0.847245 -0.665867
H 0.579565 -0.910751 -0.450376
H 3.067567 -0.702837 -0.732411
H 2.626897 2.340756 -0.716998
H 2.818272 1.382895 -2.199472
H 4.151311 1.480078 -1.048964
H 1.864832 1.081065 1.423784
H 2.548360 -1.749440 1.577222
H 0.642932 -0.058100 3.043395
H 2.112806 -0.727159 3.777462
H 1.278969 -3.050780 3.222049
H -0.223703 -2.328001 2.615510
H 0.738951 -2.083608 5.260007
H 3.821372 0.158539 2.847892
H 5.225103 -0.107705 0.088595
H 5.950802 -0.412584 1.745987
H 4.680656 2.272932 0.759658
H 5.366120 1.962507 2.428947