27
H14 C8 N1 O1 F3
C 0.930570 -0.336387 -0.013916
C 2.440257 -0.120711 0.036508
N 3.001297 -0.766681 1.218368
C 2.905821 0.016647 2.437612
C 3.152915 -0.805390 3.688302
C 2.568693 -2.179782 3.840026
C 4.058293 -2.006478 3.694659
C 3.096179 -0.690999 -1.237905
O 2.366893 -0.434731 -2.400534
C 4.522206 -0.181776 -1.469830
F 4.534553 1.142092 -1.687722
F 5.344271 -0.416026 -0.435364
F 5.071248 -0.759256 -2.539790
H 0.469566 -0.000593 0.926063
H 0.702404 -1.405781 -0.144011
H 0.461775 0.225654 -0.832944
H 2.636365 0.973444 0.046936
H 3.978913 -0.992902 1.064565
H 1.892638 0.445122 2.505706
H 3.602795 0.881216 2.428892
H 3.176236 -0.194620 4.596826
H 2.032906 -2.585473 2.977190
H 2.169587 -2.472318 4.815169
H 4.509792 -2.325698 2.750785
H 4.689133 -2.169012 4.572927
H 3.169276 -1.785781 -1.132240
H 2.206900 0.517271 -2.459228