33
H21 C10 N1 O1
C 1.406906 -0.075535 -0.997672
C 2.827785 -0.151652 -0.457142
N 2.894742 -0.111028 0.994592
C 2.294613 -1.260527 1.659771
C 1.042497 -0.897203 2.453638
C 0.433272 -2.089673 3.162924
O -0.712706 -1.684172 3.860462
C -1.338508 -2.725427 4.547001
C 4.171798 0.325431 1.503842
C 4.358458 0.581012 3.013057
C 5.824084 0.118308 2.858136
C 5.429718 -0.591286 1.545313
H 1.416946 -0.060679 -2.098584
H 0.905892 0.838828 -0.642627
H 0.799886 -0.939730 -0.685685
H 3.397895 0.709808 -0.841021
H 3.326554 -1.058491 -0.867381
H 3.020659 -1.740932 2.338378
H 2.043312 -2.037728 0.915776
H 0.291649 -0.456757 1.777644
H 1.295359 -0.124078 3.197938
H 1.172425 -2.537493 3.860908
H 0.178098 -2.882134 2.427477
H -2.221506 -2.316814 5.059384
H -0.673997 -3.181806 5.307570
H -1.673386 -3.532383 3.865065
H 4.440246 1.246979 0.961333
H 3.784330 -0.133169 3.622621
H 4.160944 1.598331 3.384349
H 6.244231 -0.501369 3.663668
H 6.503277 0.965283 2.676588
H 5.158390 -1.643703 1.724230
H 6.127315 -0.544742 0.695177