17
H10 C6 O1
C 1.028206 0.074449 0.014977
C 2.239265 0.074206 0.019172
C 3.702701 0.073749 0.006270
C 4.292559 0.057230 -1.407421
C 5.809073 0.057765 -1.383073
O 6.287939 0.040978 -2.698065
C 7.681885 0.040033 -2.778706
H -0.049346 0.074722 0.016053
H 4.059938 -0.802480 0.573012
H 4.060337 0.962724 0.552551
H 3.941631 0.937158 -1.969742
H 3.941971 -0.835902 -1.948752
H 6.180468 -0.824854 -0.821065
H 6.180274 0.954527 -0.843793
H 7.963176 0.026145 -3.841476
H 8.126269 -0.848524 -2.288063
H 8.126116 0.941194 -2.311468