19
H8 C6 O5
C 1.187916 0.371322 -0.277399
C 2.588826 -0.030080 0.070540
O 3.054111 -1.137616 -0.014048
O 3.305224 1.021087 0.500660
C 4.662466 0.789814 0.850497
C 5.222100 2.090554 1.377447
C 4.398516 2.735771 2.500319
O 3.671140 3.757079 1.823977
C 4.175354 3.953081 0.603110
O 3.803832 4.793817 -0.158270
O 5.168180 3.088780 0.353844
H 0.610116 -0.510581 -0.575646
H 1.209482 1.099388 -1.101890
H 0.712995 0.861035 0.584844
H 5.232776 0.457204 -0.030196
H 4.739239 0.012655 1.626847
H 6.270594 1.940005 1.663856
H 5.033419 3.196411 3.269905
H 3.691984 2.042104 2.972684