23
H12 C6 N1 O1 F3
O 0.691685 0.678574 -0.000665
C 2.051057 0.324238 -0.039680
C 2.684725 1.070557 -1.202542
N 4.116702 0.850103 -1.299754
C 4.497804 -0.505452 -1.670249
C 5.118396 -1.249302 -0.500622
F 5.469031 -2.530854 -0.901135
C 4.849911 1.899242 -1.969892
C 6.221631 2.122252 -1.373944
F 7.047112 1.062260 -1.615100
F 6.801366 3.199495 -1.967978
H 0.269621 0.174895 0.703298
H 2.175416 -0.767919 -0.170654
H 2.582922 0.605424 0.890584
H 2.503081 2.143383 -1.039752
H 2.151634 0.788543 -2.135775
H 5.224933 -0.491491 -2.498066
H 3.621403 -1.073451 -2.030010
H 4.410740 -1.333830 0.339009
H 6.026535 -0.735010 -0.151730
H 4.314479 2.850988 -1.846739
H 4.976105 1.729015 -3.059176
H 6.191340 2.287601 -0.285607