31
H19 C10 N1 O1
C 1.160967 -0.832104 0.200499
C 2.372475 -0.432879 -0.184921
C 2.992842 0.879492 0.183108
O 4.288802 0.658654 0.672001
C 4.985915 1.838019 0.969188
C 6.376112 1.456120 1.478404
N 7.225936 2.560224 1.838635
C 7.743372 3.407642 0.775911
C 8.185176 4.668542 1.513617
C 7.118117 4.815808 2.610086
C 5.841318 5.474168 2.089326
C 6.886894 3.352105 3.020182
H 0.743748 -1.788593 -0.128086
H 0.535575 -0.214210 0.854666
H 2.981339 -1.071945 -0.836382
H 2.367934 1.408487 0.930807
H 3.032384 1.529895 -0.717009
H 4.443642 2.428299 1.735452
H 5.065066 2.478521 0.067429
H 6.873701 0.856641 0.696846
H 6.250301 0.788890 2.348239
H 6.980102 3.658510 0.010176
H 8.576377 2.917427 0.241568
H 8.253170 5.547653 0.855558
H 9.175415 4.509203 1.970258
H 7.500959 5.404129 3.458379
H 5.400670 4.898334 1.259138
H 6.040988 6.493476 1.722406
H 5.080608 5.544199 2.882733
H 5.844227 3.189480 3.345448
H 7.530538 3.076524 3.878055