21
H11 C6 N1 O1 F2
O 0.771405 0.059232 -0.341472
C 2.108680 0.175256 0.080736
C 2.935119 0.592164 -1.134873
N 4.354878 0.717299 -0.922711
C 4.838712 1.768298 -0.039758
C 6.331470 1.474084 0.025085
C 6.332118 -0.039030 0.096890
F 6.190833 -0.437323 1.401440
F 7.496327 -0.597369 -0.327367
C 5.125156 -0.499287 -0.718281
H 0.235289 -0.188012 0.419305
H 2.490772 -0.782581 0.484330
H 2.214580 0.930206 0.883287
H 2.544607 1.556690 -1.502322
H 2.758812 -0.144579 -1.936959
H 4.402953 1.728508 0.980253
H 4.615013 2.762687 -0.456467
H 6.854331 1.919533 0.881296
H 6.827091 1.777541 -0.908471
H 4.596655 -1.284325 -0.147834
H 5.457300 -0.942144 -1.672398