29
H19 C8 N1 O1
C 3.074274 0.882847 2.308542
C 3.234494 -0.316945 1.370008
N 3.616140 -1.596225 1.958962
C 2.497593 -2.429731 2.374786
C 1.753225 -2.030231 3.652001
C 4.786746 -1.570318 2.833609
C 5.119818 -2.952378 3.392391
C 6.010472 -0.965665 2.095461
C 6.441063 -1.761732 0.872516
O 7.083408 -0.763213 2.993272
H 2.740362 1.759253 1.730869
H 4.022394 1.157024 2.796543
H 2.332359 0.698383 3.098667
H 3.962750 -0.043250 0.585877
H 2.284440 -0.480038 0.837416
H 2.850608 -3.466458 2.482275
H 1.779813 -2.453878 1.538276
H 2.440154 -1.922083 4.506512
H 1.013771 -2.803625 3.914679
H 1.210026 -1.081000 3.531859
H 4.627271 -0.902505 3.708552
H 5.208938 -3.706719 2.595368
H 4.363414 -3.300546 4.109428
H 6.072369 -2.914257 3.941413
H 5.737669 0.048586 1.768361
H 6.828733 -2.753618 1.158617
H 7.238899 -1.230132 0.332503
H 5.593813 -1.917729 0.189456
H 7.504632 -1.616336 3.151119