23
H14 C7 O2
O 1.046134 -0.380885 0.263883
C 2.423337 -0.155502 0.081916
C 3.111000 -1.493233 -0.112721
C 4.606140 -1.355926 -0.319781
O 5.165101 -2.629820 -0.491767
C 6.550393 -2.620209 -0.688530
C 7.061515 -4.028889 -0.871726
C 6.450073 -5.171986 -0.113999
C 6.242367 -5.053475 -1.602437
H 0.618433 0.473318 0.387243
H 2.865502 0.363232 0.955786
H 2.613006 0.488594 -0.799826
H 2.668647 -2.003553 -0.983893
H 2.922675 -2.128222 0.768402
H 5.069435 -0.846893 0.550446
H 4.814844 -0.721561 -1.205834
H 7.060723 -2.148855 0.177178
H 6.810357 -2.011820 -1.579761
H 8.144524 -4.067430 -1.026255
H 5.595213 -4.943755 0.527955
H 7.111680 -5.959397 0.257457
H 5.250195 -4.747349 -1.944419
H 6.760857 -5.759264 -2.257236