36
H23 C11 N1 O1
C -0.101084 -0.131011 1.326306
C 1.280440 -0.216671 1.963967
C 2.367816 -0.673252 0.994254
C 3.752616 -0.764853 1.626392
C 4.833825 -1.204104 0.641078
N 6.137408 -1.329060 1.278788
C 6.375257 -2.627219 1.892602
C 6.877711 -3.649273 0.880649
O 8.031170 -3.182329 0.215689
C 7.864644 -1.931772 -0.442997
C 7.057674 -2.078736 -1.729716
C 7.338916 -0.888026 0.566110
C 7.221596 0.512713 -0.015253
H -0.860822 0.202758 2.050158
H -0.421094 -1.110550 0.934663
H -0.108084 0.580039 0.483900
H 1.248299 -0.909647 2.823113
H 1.557209 0.768219 2.379399
H 2.402649 0.021107 0.134748
H 2.090368 -1.658036 0.575895
H 3.720978 -1.470566 2.475394
H 4.041818 0.213104 2.048651
H 4.890411 -0.461504 -0.167275
H 4.514024 -2.148591 0.154273
H 5.454349 -2.991887 2.373088
H 7.135204 -2.513767 2.686706
H 6.075653 -3.894820 0.157512
H 7.160524 -4.586565 1.383573
H 8.888542 -1.630211 -0.719922
H 6.003912 -2.331450 -1.545784
H 7.497547 -2.877460 -2.346123
H 7.083138 -1.148021 -2.315296
H 8.124319 -0.844815 1.343688
H 6.521146 0.573908 -0.860683
H 8.204298 0.851463 -0.377082
H 6.880512 1.214873 0.760734