23
H14 C6 O3
C 3.761623 -1.228511 0.334885
O 2.648454 -1.400556 -0.493424
C 1.475522 -1.758831 0.170183
C 0.813249 -0.553626 0.875150
C 0.487597 -0.718769 2.364354
C 1.718604 -0.840943 3.253561
O -0.417420 -1.784768 2.596588
O 0.662999 -2.290052 -0.830148
C -0.372086 -3.111683 -0.368805
H 4.623032 -1.006932 -0.310376
H 3.986753 -2.142237 0.918123
H 3.642232 -0.389470 1.045527
H 1.711533 -2.563324 0.908381
H -0.117459 -0.325461 0.332625
H 1.466906 0.324550 0.752950
H -0.060938 0.186823 2.670380
H 2.319461 -1.728536 2.994727
H 1.412816 -0.933643 4.306504
H 2.364226 0.044789 3.157192
H 0.067851 -2.615000 2.512226
H -0.930059 -3.464868 -1.247017
H -1.068481 -2.580534 0.303903
H 0.018553 -3.994946 0.174480