19
H12 C6 O1
C 1.043219 -0.051501 0.040023
C 2.551903 -0.055650 -0.066266
O 3.078532 -0.978004 0.849842
C 4.478111 -1.055028 0.826403
C 4.950411 -2.027289 1.870112
C 4.935256 -3.501343 1.577483
C 6.243717 -2.764258 1.661803
H 0.611231 0.667709 -0.671657
H 0.726137 0.232049 1.055345
H 0.634765 -1.048934 -0.183746
H 2.953509 0.959272 0.134177
H 2.862959 -0.318110 -1.098672
H 4.921512 -0.054457 1.012125
H 4.834226 -1.378474 -0.174402
H 4.716296 -1.731500 2.898117
H 4.588196 -3.814451 0.588092
H 4.672955 -4.185435 2.388810
H 6.788876 -2.581769 0.730609
H 6.881735 -2.936686 2.532380