32
H21 C9 N1 O1
C 0.877715 0.361216 -0.548196
C 2.398587 0.451577 -0.526371
C 3.075618 -0.785551 -1.114789
C 4.614214 -0.766826 -1.063819
C 5.177408 -1.508895 0.155059
C 4.703568 -1.010712 1.517521
C 5.393827 -1.725957 2.673537
N 5.134574 -1.366301 -2.292845
C 6.548172 -1.170284 -2.543715
C 6.929707 -1.708805 -3.916341
O 8.307343 -1.612166 -4.170611
H 0.413284 1.273194 -0.142021
H 0.521103 -0.491252 0.052907
H 0.500188 0.222549 -1.574714
H 2.740422 0.615889 0.507854
H 2.724708 1.339154 -1.096269
H 2.757087 -0.877337 -2.167894
H 2.699241 -1.694489 -0.612077
H 4.940093 0.296613 -0.986458
H 6.278457 -1.447656 0.134005
H 4.926306 -2.579279 0.041745
H 3.613258 -1.146931 1.609775
H 4.886036 0.075472 1.595601
H 5.211101 -2.812340 2.634621
H 5.031606 -1.361489 3.647395
H 6.485101 -1.573135 2.644102
H 4.617580 -0.969180 -3.076217
H 7.149251 -1.708627 -1.793864
H 6.850739 -0.099345 -2.479950
H 6.333811 -1.191557 -4.695746
H 6.663149 -2.776216 -3.967833
H 8.539366 -0.676174 -4.186952