20
H12 C6 O2
O 5.597332 3.000662 -3.890169
C 5.145044 2.940385 -2.558450
C 5.272539 1.509440 -2.068644
C 4.736903 1.299078 -0.659321
C 4.867891 -0.129071 -0.125469
C 4.732786 0.083005 1.376655
O 5.269967 1.369678 1.643038
C 5.472635 2.078114 0.434264
H 5.529200 3.913958 -4.188420
H 4.087365 3.262291 -2.475942
H 5.735528 3.614260 -1.906768
H 6.334993 1.211661 -2.110067
H 4.730789 0.854225 -2.771052
H 3.669889 1.584752 -0.632866
H 5.865542 -0.529084 -0.373174
H 4.112336 -0.817393 -0.530526
H 5.277542 -0.669861 1.969258
H 3.670831 0.049947 1.686378
H 6.555622 2.133383 0.201519
H 5.102635 3.109749 0.552676