35
H22 C10 N1 O1 F1
C 1.016571 0.251597 -0.661868
C 2.539228 0.278213 -0.612289
C 3.160749 -1.115770 -0.687157
C 4.696714 -1.144253 -0.581829
C 5.185235 -1.427983 0.845444
C 4.706759 -0.447420 1.908813
N 5.215671 -2.161835 -1.496367
C 6.639626 -2.102800 -1.760935
C 7.025236 -3.162109 -2.775749
O 8.410296 -3.108687 -2.981674
C 8.879509 -4.042391 -3.907286
C 10.379577 -3.868599 -4.012141
F 10.875570 -4.778110 -4.928324
H 0.594006 1.267872 -0.630530
H 0.600228 -0.309535 0.190777
H 0.655177 -0.232524 -1.584083
H 2.866823 0.790445 0.306304
H 2.926127 0.884463 -1.449967
H 2.861457 -1.569356 -1.648197
H 2.723458 -1.763598 0.093712
H 5.077203 -0.137020 -0.870640
H 6.287004 -1.433733 0.850113
H 4.869956 -2.453371 1.107404
H 4.976772 0.590003 1.652295
H 5.168655 -0.677762 2.881228
H 3.615427 -0.486437 2.048997
H 4.726560 -2.062456 -2.384660
H 7.206260 -2.299232 -0.837396
H 6.973184 -1.109561 -2.132565
H 6.484716 -2.991997 -3.730118
H 6.717452 -4.159333 -2.403398
H 8.419422 -3.891764 -4.904464
H 8.647973 -5.079041 -3.590781
H 10.860560 -4.049189 -3.037970
H 10.628969 -2.851204 -4.352197