24
H14 C7 N1 O1 F1
O 1.086212 -0.420007 0.387721
C 2.448274 -0.216549 0.089253
C 2.819790 -0.899261 -1.222260
N 2.222826 -0.240582 -2.380269
C 0.837172 -0.570714 -2.657288
C 0.304038 0.352249 -3.732460
F -1.018507 0.038173 -4.007296
C 4.325529 -0.894317 -1.382016
C 5.153835 -1.995909 -0.789299
C 4.978406 -1.906825 -2.281894
H 0.865180 0.113060 1.159060
H 3.090625 -0.633356 0.888865
H 2.685474 0.860668 -0.004274
H 2.488487 -1.958257 -1.144573
H 2.783463 -0.478136 -3.197126
H 0.248214 -0.431380 -1.741453
H 0.694867 -1.623442 -2.982266
H 0.879726 0.250444 -4.668034
H 0.354276 1.401423 -3.400544
H 4.768398 0.108239 -1.378759
H 4.627201 -2.797844 -0.263249
H 6.127545 -1.738024 -0.364971
H 4.329494 -2.646672 -2.760814
H 5.830965 -1.589069 -2.887526