26
H14 C8 O4
C 1.044589 0.082442 0.161857
C 2.548835 0.321763 0.136977
C 3.005039 0.898197 -1.186571
O 4.420946 1.097530 -1.125614
C 5.013929 1.600351 -2.204044
O 4.421484 1.903553 -3.211353
C 6.506534 1.716280 -2.022624
C 7.052731 2.987813 -2.631124
O 6.603087 4.100349 -1.917942
C 7.531671 5.118086 -2.222406
C 8.857464 4.351091 -2.316392
O 8.455653 3.009926 -2.542926
H 0.729480 -0.336257 1.129051
H 0.737822 -0.625056 -0.625125
H 0.486978 1.019723 0.005291
H 3.087175 -0.622727 0.318876
H 2.836787 1.014475 0.944556
H 2.513833 1.862461 -1.394855
H 2.770859 0.219607 -2.022865
H 6.968855 0.856688 -2.533040
H 6.777097 1.671081 -0.959782
H 6.742150 3.071502 -3.694891
H 7.514825 5.873830 -1.426649
H 7.279941 5.601951 -3.184098
H 9.434388 4.402258 -1.379113
H 9.490648 4.716603 -3.140666