27
H17 C9 N1
C -2.015114 0.086829 0.830771
C -0.518728 0.000872 0.602679
C 0.171662 1.075449 -0.269151
C 1.059614 -0.030756 -0.876662
C 1.370274 0.018475 -2.359305
N 2.108018 -1.159913 -2.781396
C 2.420491 -1.187452 -4.178092
C 3.695058 -0.524457 -4.621129
C 3.583249 -2.025979 -4.618948
C 0.033114 -1.070419 -0.366439
H -2.277267 0.968676 1.437912
H -2.391544 -0.805534 1.357062
H -2.555616 0.165314 -0.127092
H 0.003557 -0.077028 1.570732
H 0.669180 1.915289 0.239715
H -0.525929 1.482179 -1.021066
H 2.003425 -0.123288 -0.314435
H 1.982629 0.911121 -2.578533
H 0.418335 0.148398 -2.921268
H 1.579420 -1.996043 -2.535155
H 1.575579 -1.116660 -4.882484
H 4.303873 -0.065004 -3.837315
H 3.703278 -0.002886 -5.581760
H 4.118209 -2.569306 -3.835151
H 3.512851 -2.545674 -5.578027
H 0.413007 -2.010269 0.062764
H -0.705524 -1.312736 -1.150216