31
H19 C10 N1 O1
C 2.887946 1.778910 3.108480
C 2.263748 1.657445 1.937655
C 2.916996 1.754707 0.577846
C 2.432499 0.619828 -0.329621
O 2.904729 -0.593798 0.185919
C 2.611217 -1.697102 -0.619548
N 4.365383 1.813868 0.677220
C 5.075194 2.369673 -0.472020
C 5.011542 3.894213 -0.469207
C 6.508067 1.882580 -0.432531
C 6.830737 0.497665 -0.921360
C 7.277956 1.702065 -1.707519
H 2.341378 1.707518 4.053420
H 3.966216 1.957355 3.150529
H 1.180911 1.482016 1.918090
H 2.554624 2.689300 0.113791
H 1.325039 0.623992 -0.388423
H 2.809130 0.775128 -1.360503
H 3.024594 -2.593230 -0.135248
H 3.061337 -1.603666 -1.627211
H 1.520261 -1.838416 -0.745651
H 4.698002 0.864993 0.844550
H 4.639758 2.011436 -1.429747
H 5.479351 4.294151 0.444632
H 3.973402 4.258836 -0.505972
H 5.539502 4.306185 -1.343064
H 7.073094 2.236259 0.437711
H 6.004468 -0.096130 -1.325088
H 7.585843 -0.081389 -0.383471
H 6.759462 1.917212 -2.646916
H 8.341902 1.952875 -1.709853