27
H17 C8 N1 O1
C 0.588167 0.034764 1.355226
C 1.708279 -0.206618 0.344631
C 1.560990 0.691474 -0.880717
C 3.068285 -0.011532 1.024756
N 4.213778 -0.182601 0.150645
C 5.439250 0.330789 0.737781
C 6.592420 0.196842 -0.242918
O 6.764888 -1.136518 -0.657606
C 5.589124 -1.641115 -1.242068
C 4.405611 -1.553178 -0.292298
H -0.399744 -0.146786 0.903765
H 0.602755 1.076049 1.719588
H 0.683408 -0.627653 2.230516
H 1.630707 -1.256727 0.012383
H 1.619238 1.755531 -0.593419
H 0.591338 0.530760 -1.378220
H 2.359947 0.501748 -1.612331
H 3.133550 -0.691374 1.905940
H 3.107144 1.017145 1.424086
H 5.699302 -0.211347 1.676110
H 5.306238 1.393004 0.997436
H 7.532796 0.519895 0.226638
H 6.401161 0.848258 -1.119955
H 5.781152 -2.689164 -1.513874
H 5.352736 -1.081540 -2.170035
H 4.580015 -2.233980 0.572778
H 3.507696 -1.911836 -0.817084