31
H19 C9 N1 F2
C 3.332774 -0.837857 -1.370761
C 4.572246 -0.000837 -1.686538
C 4.777334 0.106882 -3.197789
C 4.557402 1.399327 -1.058355
C 4.473758 1.459164 0.480315
C 3.034524 1.598473 0.970016
N 5.247747 2.590548 1.013890
C 6.593759 2.313754 1.482509
C 7.570721 1.956141 0.377303
F 7.357194 0.667227 -0.089797
C 7.091942 3.567344 2.192299
F 8.311897 3.326139 2.798594
H 3.380808 -1.811913 -1.883825
H 2.412203 -0.329949 -1.706070
H 3.234118 -1.042460 -0.293793
H 5.447395 -0.526502 -1.266438
H 3.931951 0.631972 -3.674666
H 4.856861 -0.888151 -3.664164
H 5.695935 0.665340 -3.439263
H 3.725039 1.988051 -1.488308
H 5.477094 1.913541 -1.372363
H 4.884082 0.510142 0.880906
H 2.630320 2.580394 0.671884
H 2.979932 1.522781 2.067967
H 2.381872 0.825472 0.543780
H 4.729877 2.992021 1.792648
H 6.624987 1.479443 2.217274
H 8.598565 1.996870 0.766991
H 7.472066 2.654547 -0.469233
H 6.375607 3.869030 2.972648
H 7.213942 4.398765 1.479270