34
H21 C10 N1 O2
C 1.207178 -0.215744 -0.216948
C 2.715292 -0.207814 -0.106947
O 3.113235 0.851025 0.728790
C 4.492636 0.945434 0.892742
C 4.958697 2.050858 1.839253
C 6.045840 1.086147 2.376695
N 7.333107 1.244481 1.716229
C 7.946748 2.526705 2.004485
C 8.247669 0.147321 1.996337
C 9.150972 -0.149060 0.810924
O 10.023943 -1.185696 1.159811
C 10.895820 -1.545683 0.130874
C 5.212969 -0.081565 1.790875
H 0.875711 -1.034986 -0.872151
H 0.843059 0.734173 -0.637545
H 0.745679 -0.355147 0.772647
H 3.174713 -0.094631 -1.110006
H 3.073239 -1.175268 0.298096
H 4.997297 1.018882 -0.089767
H 4.191143 2.230620 2.606077
H 5.268491 3.010898 1.404550
H 6.159353 1.081045 3.481779
H 7.327460 3.357215 1.637797
H 8.921833 2.603765 1.502035
H 8.116575 2.681671 3.093123
H 7.677927 -0.766095 2.218585
H 8.873680 0.350325 2.890590
H 9.720113 0.756138 0.515684
H 8.524678 -0.430687 -0.060476
H 11.538015 -2.360701 0.494583
H 11.543802 -0.701836 -0.178759
H 10.353700 -1.902024 -0.767335
H 4.516015 -0.482285 2.542169
H 5.751060 -0.911220 1.310805