36
H23 C11 N1 O1
C 6.228373 0.179083 4.561327
C 6.702814 -1.169773 4.108521
C 6.090451 -1.997697 3.251892
C 4.796028 -1.756087 2.529883
C 3.597828 -2.546900 3.084391
C 2.370758 -2.268678 2.226835
O 1.286883 -3.016395 2.725223
N 3.311003 -2.197235 4.470668
C 3.849436 -3.104245 5.488211
C 3.966525 -2.357344 6.812775
C 3.020112 -4.392053 5.609723
C 3.641085 -5.493158 6.466014
C 2.821037 -6.778348 6.467409
H 6.344195 0.279529 5.652292
H 5.172046 0.358488 4.318864
H 6.830775 0.985614 4.108468
H 7.658788 -1.500615 4.533326
H 6.570590 -2.963609 3.049614
H 4.932102 -2.037838 1.471223
H 4.536521 -0.685875 2.544991
H 3.819998 -3.629719 2.984596
H 2.154022 -1.182554 2.258618
H 2.597110 -2.530108 1.176464
H 0.481715 -2.707821 2.296064
H 2.298074 -2.176051 4.584144
H 4.866553 -3.383903 5.167460
H 2.971448 -2.031276 7.160636
H 4.593000 -1.460876 6.691398
H 4.411653 -2.982435 7.601623
H 2.843451 -4.787787 4.594833
H 2.021968 -4.129095 6.008645
H 3.762753 -5.140330 7.503783
H 4.659370 -5.706260 6.095069
H 1.805466 -6.601983 6.858286
H 3.287982 -7.555885 7.091968
H 2.716328 -7.186030 5.448551