32
H21 C9 N1 O1
C 5.298931 -1.178644 3.805303
C 4.818023 -1.819884 2.508883
C 5.118436 -0.965108 1.279971
C 4.724820 -1.587612 -0.068667
C 3.214046 -1.730373 -0.225110
N 5.344128 -2.895046 -0.259124
C 6.787636 -2.886310 -0.401373
C 7.308021 -4.271425 -0.758268
C 8.818743 -4.319693 -0.873110
O 9.215987 -5.617340 -1.221914
C 10.598852 -5.755194 -1.350032
H 5.070934 -1.810544 4.677951
H 4.820569 -0.198911 3.969518
H 6.389072 -1.014364 3.788870
H 3.733151 -2.008181 2.576143
H 5.289398 -2.808036 2.381884
H 6.196006 -0.725710 1.266993
H 4.602445 0.006888 1.367913
H 5.072987 -0.875637 -0.851173
H 2.804879 -2.455265 0.495625
H 2.959335 -2.085154 -1.236988
H 2.709341 -0.764607 -0.071140
H 4.939618 -3.324802 -1.089959
H 7.243464 -2.568342 0.551884
H 7.131207 -2.153394 -1.165689
H 6.870827 -4.597927 -1.717864
H 6.978339 -4.992651 0.007306
H 9.284344 -4.017493 0.088570
H 9.168158 -3.590739 -1.634381
H 10.815620 -6.797684 -1.624410
H 11.129780 -5.525598 -0.404749
H 11.012146 -5.093841 -2.137466