23
H14 C6 O3
C 1.879574 -0.025151 -1.071045
O 1.781318 -0.015925 0.329779
C 2.367416 1.081448 0.935909
C 1.995306 1.075342 2.408960
C 0.501594 1.230051 2.663536
C 0.154040 1.237181 4.145566
O -1.229353 1.323309 4.387043
O 3.760503 1.002034 0.762770
C 4.418192 2.234968 0.677043
H 1.350226 -0.915722 -1.436508
H 2.928492 -0.071210 -1.408434
H 1.409264 0.872639 -1.515360
H 2.004450 2.018924 0.453475
H 2.548790 1.892862 2.899866
H 2.366729 0.129752 2.838447
H -0.047795 0.411366 2.172919
H 0.144589 2.172124 2.208172
H 0.704313 2.055756 4.652066
H 0.494285 0.296697 4.609355
H -1.539952 2.155858 4.012353
H 5.486726 2.033413 0.517270
H 4.317204 2.835600 1.600419
H 4.046798 2.843113 -0.170012