22
H10 C7 O5
C 1.047538 0.098321 -0.033944
C 2.545887 -0.033217 0.172117
C 2.927426 -1.159749 1.096062
O 2.163809 -1.896395 1.668143
O 4.257945 -1.259063 1.220060
C 4.749464 -2.277123 2.075688
C 6.258861 -2.209045 2.069250
C 6.906641 -3.256508 2.986279
O 7.329974 -2.489236 4.110286
C 7.254921 -1.182356 3.841393
O 7.623430 -0.316313 4.574759
O 6.711966 -0.975939 2.634906
H 0.828399 0.935350 -0.712453
H 0.529013 0.286040 0.917823
H 0.623385 -0.816773 -0.473255
H 2.978469 0.889776 0.592051
H 3.073252 -0.199498 -0.781219
H 4.433425 -3.269189 1.715561
H 4.358589 -2.145603 3.098296
H 6.635550 -2.266285 1.039838
H 7.781700 -3.733265 2.524517
H 6.204046 -4.029217 3.324462