28
H18 C8 N1 F1
C 0.937687 0.003015 -0.154546
C 2.460004 -0.106423 -0.067833
C 2.873727 -1.471777 0.483419
C 3.095195 0.191890 -1.431181
C 4.618394 0.218455 -1.442968
N 5.124247 0.600616 -2.748464
C 6.571034 0.651777 -2.825329
C 7.033352 1.063481 -4.216921
C 8.539599 1.083410 -4.340269
F 8.906993 1.482265 -5.618870
H 0.467464 -0.156706 0.828789
H 0.528919 -0.752422 -0.847059
H 0.624893 0.994234 -0.519948
H 2.813511 0.665246 0.640929
H 2.600610 -2.277308 -0.219805
H 2.369271 -1.679323 1.440579
H 3.957639 -1.537122 0.663844
H 2.728157 1.173401 -1.781943
H 2.746313 -0.550179 -2.171919
H 5.016732 -0.782770 -1.205151
H 4.979568 0.891494 -0.632376
H 4.748275 1.516596 -2.993547
H 6.966956 -0.352043 -2.589308
H 7.014186 1.339352 -2.070787
H 6.645910 2.069013 -4.454717
H 6.614383 0.366478 -4.960467
H 8.968863 0.083781 -4.162178
H 8.991401 1.789457 -3.624343