27
H14 C8 N1 O1 F3
C 0.961890 -0.469251 -0.171868
C 2.439019 -0.247536 0.088079
C 3.182494 -1.473192 0.705242
O 2.372521 -2.315741 1.495682
C 4.347436 -0.823264 1.483814
C 4.212511 0.680173 1.182988
N 2.793637 0.914801 0.922756
C 2.000514 1.103773 2.132374
C 0.868152 2.105384 1.909160
C 0.004369 2.300340 3.122620
F -0.609438 1.163864 3.497601
F 0.701714 2.725881 4.189348
F -0.961581 3.204972 2.906846
H 0.835053 -1.347409 -0.822240
H 0.516529 0.396277 -0.684513
H 0.394236 -0.661938 0.749938
H 2.926198 -0.065175 -0.886134
H 3.549136 -2.117927 -0.107594
H 2.105493 -1.831867 2.285935
H 5.330137 -1.228618 1.204329
H 4.206404 -1.017784 2.559633
H 4.781655 0.933040 0.272205
H 4.581141 1.326032 1.991791
H 2.657401 1.500728 2.920071
H 1.577703 0.164952 2.537340
H 0.203083 1.784399 1.096731
H 1.283833 3.085238 1.633524