39
H25 C12 N1 O1
C 9.839819 2.901377 -9.327578
C 9.401693 2.664001 -8.091700
C 9.309242 1.304582 -7.470466
O 9.940112 1.326357 -6.216801
C 9.859241 0.107726 -5.521233
C 10.494541 0.247398 -4.138438
N 9.692807 0.745003 -3.038510
C 8.752794 -0.217929 -2.518076
C 9.206493 2.125734 -3.042198
C 7.967952 2.376857 -3.914686
C 10.316476 3.126569 -3.372181
C 11.520876 3.073320 -2.437842
C 12.611466 4.078203 -2.800160
C 13.815490 4.025489 -1.867367
H 9.855117 3.913300 -9.743104
H 10.194789 2.091425 -9.974683
H 9.055574 3.494206 -7.463439
H 9.766882 0.542096 -8.132112
H 8.240152 1.026764 -7.351366
H 10.396725 -0.678863 -6.088062
H 8.804320 -0.223472 -5.435935
H 11.400148 0.864649 -4.260340
H 10.848462 -0.753667 -3.841545
H 9.276262 -1.150641 -2.249379
H 7.931625 -0.494816 -3.213927
H 8.281853 0.175605 -1.602782
H 8.902613 2.320891 -1.995743
H 8.216722 2.283978 -4.981061
H 7.578768 3.392512 -3.739655
H 7.157128 1.670252 -3.679537
H 9.874162 4.136603 -3.330583
H 10.635033 2.980295 -4.418210
H 11.948847 2.056734 -2.439148
H 11.184317 3.255633 -1.400873
H 12.185084 5.097027 -2.795714
H 12.940448 3.892743 -3.837992
H 13.523740 4.242743 -0.826685
H 14.585661 4.757307 -2.157188
H 14.282965 3.027147 -1.877551