30
H17 C8 N1 O2 F2
C 5.494534 -3.439493 2.155139
C 4.524860 -2.279301 2.299166
O 3.353745 -2.777143 2.919821
C 5.163287 -1.148140 3.120214
N 4.505224 0.143490 3.153310
C 3.243672 0.296779 3.825294
C 2.028896 0.482568 2.929600
F 1.837345 -0.599522 2.103229
F 0.918442 0.575829 3.702539
C 4.941599 1.204950 2.251989
C 4.834237 0.871457 0.766246
C 6.360801 1.654643 2.627393
O 6.470840 1.853584 4.007995
H 5.018678 -4.265269 1.606195
H 5.795167 -3.816362 3.146479
H 6.401317 -3.135220 1.611374
H 4.281469 -1.891363 1.292777
H 2.632394 -2.179267 2.698897
H 6.185655 -0.988103 2.744173
H 5.272105 -1.528847 4.153245
H 3.246332 1.182510 4.488260
H 3.054757 -0.582382 4.459985
H 2.077579 1.369556 2.280850
H 4.286361 2.065508 2.465059
H 5.494250 0.031076 0.498724
H 5.130503 1.737302 0.153357
H 3.804317 0.596245 0.495559
H 6.588311 2.602452 2.113099
H 7.099454 0.910619 2.261986
H 5.903758 1.166435 4.391937