26
H16 C7 N1 O1 F1
C 1.027174 -0.375020 0.071227
C 2.523156 -0.112000 -0.051203
C 2.940080 0.879924 -1.140475
C 2.370536 2.290586 -0.932011
O 0.993542 2.409078 -1.191053
N 4.395739 0.970293 -1.172217
C 4.964458 1.288324 -2.469379
C 6.476682 1.443746 -2.379119
C 7.098884 1.787833 -3.712890
F 8.476613 1.901348 -3.580020
H 0.833642 -1.144025 0.835150
H 0.608909 -0.739249 -0.881393
H 0.473485 0.532819 0.345613
H 3.038139 -1.067369 -0.256127
H 2.922808 0.252128 0.912126
H 2.545375 0.504325 -2.113407
H 2.949961 3.001294 -1.551925
H 2.527739 2.586509 0.118337
H 0.836483 2.113442 -2.095639
H 4.793935 0.089725 -0.851720
H 4.525605 2.233595 -2.830514
H 4.714612 0.523050 -3.236605
H 6.925139 0.505091 -2.010844
H 6.718598 2.231613 -1.647845
H 6.716642 2.747832 -4.097024
H 6.896204 1.006428 -4.463535