24
H14 C7 N1 O1 F1
C 0.856684 -0.100002 -0.303879
C 2.331099 -0.251649 -0.021849
C 3.348249 0.647397 -0.694441
C 3.269534 -0.802986 -1.065943
N 4.338447 -1.736724 -0.808423
C 4.995786 -1.709679 0.485482
C 6.335233 -2.441339 0.348419
O 7.005672 -1.972538 -0.789052
C 7.189103 -2.235593 1.575006
F 8.301825 -3.060758 1.537007
H 0.413069 0.709858 0.297907
H 0.307049 -1.027129 -0.074436
H 0.680775 0.139957 -1.364653
H 2.577431 -0.515190 1.012861
H 4.194451 0.997751 -0.096941
H 2.988399 1.375184 -1.428303
H 2.811157 -1.004905 -2.039906
H 3.995378 -2.679551 -0.988354
H 4.397876 -2.156762 1.301256
H 5.200301 -0.662637 0.760550
H 6.132816 -3.531062 0.264211
H 6.276905 -1.749600 -1.396342
H 6.616179 -2.473445 2.485597
H 7.537752 -1.191228 1.623567