34
H21 C11 N1 O1
C 1.130898 -1.683469 -0.133957
C 2.214224 -0.934479 0.101689
C 3.603665 -1.328707 -0.330066
C 4.244295 -0.200091 -1.161806
N 4.216163 1.095721 -0.499485
C 5.188972 1.256175 0.563532
C 6.630201 1.456391 0.086431
C 6.818539 2.641747 -0.868506
C 6.540949 2.338646 -2.336702
O 7.373800 1.636556 1.277178
C 8.713723 1.250364 1.198331
C 2.857987 1.464276 -0.137533
C 2.156521 0.422552 0.755439
H 1.206934 -2.653875 -0.635797
H 0.132655 -1.355207 0.174351
H 3.589978 -2.263717 -0.910558
H 4.222779 -1.508485 0.566725
H 3.696153 -0.110397 -2.116093
H 5.281620 -0.462243 -1.416493
H 5.197844 0.414272 1.286402
H 4.919579 2.155406 1.140750
H 6.985413 0.535090 -0.418926
H 7.861768 2.984498 -0.769641
H 6.185960 3.478137 -0.523984
H 7.167738 1.504925 -2.694023
H 6.764156 3.213766 -2.966859
H 5.488984 2.063201 -2.492950
H 9.182227 1.455527 2.171916
H 9.277279 1.807204 0.425540
H 8.819566 0.169228 0.981621
H 2.272423 1.579687 -1.066817
H 2.871146 2.445379 0.361080
H 1.116587 0.726026 0.950720
H 2.678123 0.381155 1.728480