33
H21 C10 N1 O1
C 4.665595 0.049329 4.155686
O 5.472135 0.490601 3.102123
C 4.994190 0.351271 1.778162
C 3.953317 1.418422 1.452164
C 4.547572 -1.070927 1.355820
C 3.132694 -1.484746 1.762835
N 5.487135 -2.083946 1.821137
C 6.827006 -2.130132 1.243973
C 6.852464 -2.121031 -0.285682
C 7.877398 -1.153374 1.843541
C 8.852215 -2.334991 2.018766
C 7.664221 -3.299045 1.823709
H 5.092985 0.455857 5.085030
H 4.657042 -1.051428 4.234044
H 3.622195 0.407797 4.083588
H 5.886682 0.572422 1.170609
H 3.057988 1.334518 2.086622
H 3.629557 1.340232 0.402753
H 4.385608 2.418371 1.604538
H 4.526112 -1.011492 0.246689
H 3.017249 -1.599768 2.849165
H 2.889468 -2.453729 1.297345
H 2.384525 -0.761401 1.409595
H 5.062847 -2.999298 1.676055
H 6.494805 -1.162443 -0.693501
H 6.217980 -2.927729 -0.689588
H 7.875937 -2.273493 -0.662468
H 7.517293 -0.744518 2.795915
H 8.200632 -0.321178 1.198206
H 9.389731 -2.399998 2.976010
H 9.588564 -2.403036 1.203883
H 7.242664 -3.628261 2.785232
H 7.809772 -4.176470 1.173962