10
H4 C3 O3
O 1.967676 0.143056 0.082363
C 0.774125 0.080537 0.031875
C -0.247634 1.199014 -0.042191
O -1.464930 0.550091 0.224082
C -1.294673 -0.772494 -0.171617
O 0.085502 -1.071197 0.024877
H -0.213335 1.653963 -1.050863
H -0.048710 1.975165 0.708639
H -1.531919 -0.924182 -1.241685
H -1.902642 -1.436712 0.456300