30
H19 C9 N1 O1
C 3.275558 -0.919260 -3.241970
C 3.537011 -0.212901 -2.141962
C 4.518423 0.921394 -2.057840
N 5.430241 0.783068 -0.933142
C 6.325354 -0.344689 -1.095608
C 6.134318 2.015419 -0.627085
C 6.654249 2.094155 0.814027
C 5.526004 2.090065 1.835209
C 6.017293 2.049936 3.275284
O 7.397532 3.287679 0.969504
C 8.763516 3.169766 0.694419
H 2.521878 -1.712405 -3.246917
H 3.803272 -0.727044 -4.183119
H 3.000923 -0.434456 -1.210060
H 3.948810 1.854832 -1.912075
H 5.057562 1.024348 -3.026687
H 5.752134 -1.267008 -1.270615
H 6.928492 -0.500339 -0.189770
H 7.024146 -0.213062 -1.951994
H 5.441111 2.860125 -0.765946
H 6.984440 2.183472 -1.324854
H 7.316333 1.230136 1.019850
H 4.910627 2.991496 1.668010
H 4.881854 1.224023 1.618181
H 6.672851 2.908307 3.486624
H 6.592661 1.130986 3.474345
H 5.177997 2.079582 3.987020
H 9.216830 4.165923 0.802402
H 8.964720 2.812396 -0.333177
H 9.267587 2.480495 1.399409