30
H18 C9 N1 O1 F1
C 2.277459 -0.749278 -0.949495
C 2.050760 0.564633 -0.204629
N 1.052313 1.364791 -0.899749
C 0.236824 2.244706 -0.085131
C -1.014227 1.526606 0.396557
O -1.748131 2.391077 1.221213
C -2.920884 1.829532 1.727606
C -3.591935 2.873007 2.594883
F -4.761938 2.346052 3.111099
C 3.392089 1.259818 0.048774
C 4.144794 1.930090 -1.067586
C 3.567266 2.752130 0.053042
H 3.015396 -1.382196 -0.431857
H 2.655181 -0.554452 -1.966878
H 1.335235 -1.311027 -1.037596
H 1.623254 0.321126 0.783021
H 1.453359 1.851852 -1.695990
H -0.068413 3.116110 -0.684968
H 0.771453 2.642010 0.799746
H -0.733493 0.607429 0.950502
H -1.615788 1.205659 -0.477243
H -2.709111 0.925706 2.333550
H -3.610087 1.526069 0.914193
H -3.837831 3.768986 2.003487
H -2.935763 3.163478 3.430351
H 4.018963 0.715120 0.763166
H 3.655228 2.002864 -2.044990
H 5.228612 1.796240 -1.119241
H 2.701891 3.376029 -0.185231
H 4.250743 3.188983 0.786256