33
H21 C10 N1 O1
C 1.156340 0.344906 0.484698
C 2.348929 -0.011784 -0.005354
C 2.999100 0.633942 -1.204007
C 2.225202 1.757001 -1.876367
C 3.134762 -1.146472 0.616827
N 4.494700 -0.772158 0.975750
C 4.515360 0.200338 2.050052
C 5.324923 -1.930710 1.242861
C 6.813438 -1.619617 1.231704
O 7.506914 -2.832587 1.310567
C 8.902162 -2.684980 1.347820
C 9.546863 -4.050993 1.420006
H 0.548587 1.133215 0.032112
H 0.739561 -0.153356 1.365971
H 3.215826 -0.164624 -1.936805
H 3.992057 0.995006 -0.887333
H 1.249606 1.411668 -2.253789
H 2.791385 2.154031 -2.732430
H 2.040668 2.593188 -1.183363
H 3.198476 -1.961512 -0.124472
H 2.575200 -1.549464 1.489752
H 3.885573 1.064478 1.791674
H 5.533036 0.577985 2.223129
H 4.136228 -0.217311 3.009587
H 5.146145 -2.676400 0.452770
H 5.065184 -2.418910 2.209372
H 7.096133 -0.961928 2.077403
H 7.062555 -1.073326 0.298737
H 9.199867 -2.072477 2.223548
H 9.254170 -2.140778 0.447621
H 9.220183 -4.588039 2.323684
H 10.642368 -3.955177 1.450950
H 9.276349 -4.655966 0.541065