17
H10 C5 O2
O 1.067409 0.086258 -0.192429
C 2.453652 -0.093821 -0.054875
C 2.902289 0.620876 1.206540
C 2.716235 2.139375 1.189417
C 3.881769 2.609891 2.056580
C 4.966608 1.615626 1.660375
O 4.294488 0.397021 1.387064
H 0.786412 -0.346467 -1.005515
H 3.016461 0.324666 -0.912992
H 2.725324 -1.163955 0.026101
H 2.352519 0.186119 2.064641
H 1.730510 2.447655 1.562381
H 2.826864 2.520425 0.160135
H 3.634598 2.501795 3.124828
H 4.173335 3.654018 1.875389
H 5.711766 1.445083 2.453576
H 5.506659 1.961785 0.758265