35
H22 C10 N1 O1 F1
C 1.063253 -0.262367 -0.081316
C 2.557959 0.028000 -0.123918
C 2.948336 1.507533 -0.179640
C 2.385843 2.316525 0.989620
O 1.053594 2.666997 0.736214
C 0.432998 3.296264 1.816259
N 4.403158 1.613756 -0.171596
C 4.932519 2.790647 -0.838901
C 6.448196 2.845046 -0.694988
C 7.134437 4.045618 -1.345306
C 7.008324 4.060814 -2.859414
C 6.727611 5.371577 -0.724970
F 8.511014 3.879480 -1.063438
H 0.883866 -1.348546 -0.101983
H 0.543771 0.180544 -0.945689
H 0.592572 0.141801 0.826323
H 2.998413 -0.468910 -1.006139
H 3.051012 -0.416580 0.759080
H 2.516510 1.947962 -1.104862
H 2.996234 3.229380 1.140985
H 2.469855 1.723246 1.924746
H -0.593732 3.554432 1.519481
H 0.956717 4.227459 2.110319
H 0.385311 2.639535 2.707361
H 4.799992 0.786403 -0.613267
H 4.486280 3.687130 -0.378581
H 4.648261 2.821765 -1.911919
H 6.887823 1.931217 -1.130639
H 6.701152 2.843163 0.377585
H 5.968562 4.245573 -3.165016
H 7.331289 3.098897 -3.285332
H 7.635723 4.860163 -3.281508
H 5.678119 5.606705 -0.953455
H 7.353532 6.182817 -1.125916
H 6.848286 5.341727 0.368448