19
H9 C6 N1 O1 F2
F 0.912173 -0.062234 1.358750
C 1.823027 0.088624 0.367260
F 1.122369 0.324155 -0.764322
C 2.944267 1.072201 0.682983
N 3.840735 -0.078408 0.871623
C 5.175887 0.001147 0.343045
C 5.906575 -1.341999 0.211493
O 5.945102 -1.243969 -1.213256
C 5.379970 0.069109 -1.189022
C 2.866083 -1.021562 0.295493
H 2.796014 1.709161 1.568435
H 3.181110 1.698924 -0.195404
H 5.722506 0.775428 0.900127
H 5.339469 -2.221524 0.562069
H 6.914481 -1.370263 0.659838
H 4.463809 0.149593 -1.800218
H 6.096126 0.838634 -1.525287
H 2.656796 -1.912493 0.906189
H 3.061699 -1.324394 -0.747796