35
H22 C10 N1 O1 F1
C 5.725577 2.482223 -2.256521
O 5.015585 2.291851 -1.069411
C 5.193816 1.016023 -0.515740
C 4.382911 0.854445 0.775326
N 2.970003 0.547732 0.566392
C 2.175992 1.491726 -0.201986
C 0.715923 1.058485 -0.235067
C -0.170149 2.018532 -1.021425
C -1.614563 1.574017 -1.043259
F -2.383569 2.474344 -1.770539
C 4.581064 2.033544 1.751987
C 3.832529 1.796991 3.062262
C 6.063031 2.302675 2.016575
H 5.538873 3.507235 -2.607533
H 5.405519 1.776723 -3.048350
H 6.816280 2.355208 -2.109281
H 6.269040 0.836339 -0.312137
H 4.876534 0.232376 -1.235368
H 4.805819 -0.039748 1.268983
H 2.897246 -0.371480 0.134657
H 2.540585 1.627254 -1.239937
H 2.244749 2.484548 0.272664
H 0.348533 0.964923 0.801200
H 0.649942 0.049205 -0.680547
H 0.190355 2.101197 -2.060620
H -0.117045 3.028263 -0.580441
H -2.031220 1.521243 -0.023929
H -1.720267 0.582997 -1.514784
H 4.165737 2.936646 1.274596
H 4.223745 0.905303 3.582179
H 2.759509 1.635659 2.889875
H 3.947888 2.656800 3.741272
H 6.570595 1.400905 2.400298
H 6.182738 3.096199 2.770920
H 6.588966 2.631406 1.108248