26
H15 C8 N1 O2
C 0.863524 -0.138668 -0.334650
O 2.260393 -0.192274 -0.362170
C 2.841844 0.401454 -1.491642
C 2.849770 1.929381 -1.415032
C 4.287873 -0.098711 -1.574088
O 4.930369 -0.355422 -0.566585
N 4.834562 -0.172478 -2.810821
C 4.173284 0.066210 -4.096244
C 5.215405 -0.386310 -5.119674
C 6.543482 -0.104542 -4.417526
C 6.253050 -0.488903 -2.969443
H 0.526647 -0.705618 0.545046
H 0.413382 -0.597328 -1.237104
H 0.472278 0.891918 -0.246034
H 2.285498 0.090016 -2.394945
H 3.385441 2.248653 -0.508214
H 1.826939 2.332103 -1.382440
H 3.353491 2.364109 -2.291264
H 3.931476 1.135869 -4.221099
H 3.236262 -0.502813 -4.181112
H 5.106119 0.134631 -6.080796
H 5.110473 -1.467147 -5.306447
H 6.784102 0.969148 -4.479728
H 7.387948 -0.666039 -4.840273
H 6.853990 0.067526 -2.236131
H 6.430275 -1.564463 -2.791604