26
H16 C8 N1 F1
C 2.370610 -3.078242 0.252407
C 2.361019 -2.076608 1.401254
C 3.251863 -0.839157 1.191636
N 2.820207 -0.092423 0.015081
C 2.786803 1.349735 0.117479
C 2.071717 1.925460 -1.088119
F 2.027131 3.306986 -0.989043
C 4.734477 -1.210613 1.224313
C 5.481180 -1.697827 0.012242
C 5.808377 -0.356778 0.610368
H 1.641862 -3.884489 0.429182
H 3.357677 -3.547003 0.121383
H 2.098459 -2.587590 -0.695785
H 2.664086 -2.578089 2.336447
H 1.330358 -1.716795 1.558154
H 3.077814 -0.181597 2.060131
H 3.317347 -0.385902 -0.822771
H 3.781625 1.833805 0.199876
H 2.222223 1.629917 1.021797
H 1.040961 1.541623 -1.146757
H 2.599205 1.667308 -2.021727
H 5.014350 -1.703587 2.161638
H 4.960881 -1.707325 -0.950784
H 6.191322 -2.519191 0.140718
H 5.504021 0.528486 0.045750
H 6.750712 -0.242943 1.153091