15
H9 C4 N1 O1
C 1.021379 0.170726 -0.256889
O 2.351659 0.206415 0.182280
C 2.809587 -0.850198 0.958709
C 2.028322 -1.383001 2.180402
N 2.514928 -2.729142 1.834699
C 2.788227 -2.308622 0.450284
H 0.882813 1.025075 -0.934532
H 0.297753 0.272383 0.572002
H 0.777047 -0.750250 -0.815921
H 3.831176 -0.574290 1.257933
H 0.936367 -1.261372 2.064222
H 2.320379 -1.009137 3.175599
H 1.819022 -3.466331 1.924187
H 1.952833 -2.495797 -0.248500
H 3.715248 -2.704929 0.004094