20
H12 C7 O1
C -1.256274 -0.718943 -0.079015
C 0.157711 -1.261702 0.083920
O 1.028298 -0.199695 -0.267178
C 0.349675 1.049492 -0.237127
C 0.349296 1.690982 -1.614140
C 0.211327 0.859989 -2.858681
C 1.523224 1.524003 -2.533655
C -1.058762 0.747964 0.301121
H -1.984636 -1.240572 0.557666
H -1.587923 -0.810159 -1.124516
H 0.371561 -2.126632 -0.563563
H 0.340995 -1.569594 1.131641
H 0.891866 1.721658 0.452024
H -0.140099 2.670698 -1.625991
H -0.386051 1.258092 -3.683250
H 0.163682 -0.225687 -2.738822
H 1.837546 2.381427 -3.134914
H 2.332789 0.874622 -2.189858
H -1.819923 1.418980 -0.121347
H -1.076681 0.861718 1.396354