33
H21 C10 N1 O1
C 1.337814 1.299741 -2.868383
C 2.743174 1.268275 -2.275859
C 3.011229 0.105387 -1.310718
C 2.009138 0.097624 -0.143410
O 2.301444 -0.872997 0.830387
N 4.404237 0.082343 -0.883502
C 4.864961 1.124087 0.016711
C 5.992269 1.974363 -0.578115
C 7.336752 1.262762 -0.723372
C 7.297251 -0.106564 -1.408867
C 6.549149 -1.172490 -0.600248
C 5.037087 -1.220550 -0.820870
H 1.258761 2.076260 -3.644675
H 0.570680 1.519203 -2.109708
H 1.079789 0.335003 -3.335607
H 2.944712 2.222639 -1.758110
H 3.486445 1.194964 -3.086223
H 2.853483 -0.833005 -1.869448
H 1.950487 1.109985 0.306571
H 1.002691 -0.132570 -0.524561
H 3.181481 -0.681222 1.174257
H 5.183894 0.708662 0.994729
H 4.021505 1.792875 0.247099
H 6.133098 2.872666 0.047782
H 5.649518 2.327728 -1.565632
H 7.779547 1.126923 0.280194
H 8.028075 1.924463 -1.271862
H 8.336998 -0.440672 -1.557738
H 6.853871 -0.017850 -2.416472
H 6.770374 -1.022298 0.470213
H 6.938276 -2.174320 -0.843490
H 4.595948 -1.880890 -0.042551
H 4.841603 -1.725184 -1.783762