29
H19 C9 N1
C 0.950008 0.447116 -0.730207
C 2.150791 -0.097952 0.038357
C 2.809690 0.914497 1.000587
C 2.289801 0.784947 2.446111
C 0.787893 0.982480 2.617880
N 4.269399 0.851847 0.873980
C 4.932305 -0.357355 1.348945
C 5.467262 -0.058139 2.767527
C 5.586203 1.479845 2.815724
C 5.029999 1.953162 1.449535
H 0.524608 -0.321474 -1.394632
H 1.243741 1.303367 -1.358957
H 0.145734 0.789553 -0.062570
H 2.915234 -0.409578 -0.690089
H 1.859391 -1.008930 0.590114
H 2.535932 1.925021 0.647536
H 2.815575 1.525623 3.070612
H 2.569508 -0.208517 2.836950
H 0.456824 1.945766 2.196107
H 0.514957 0.977224 3.684653
H 0.207079 0.184545 2.130082
H 5.781357 -0.591106 0.680954
H 4.254291 -1.222667 1.317950
H 6.428259 -0.561898 2.949787
H 4.762532 -0.418257 3.531333
H 6.625137 1.813200 2.956755
H 4.999462 1.894388 3.648842
H 5.874736 2.198392 0.780147
H 4.408333 2.857751 1.526246