27
H17 C8 N1 O1
C 1.295822 0.606342 -0.468664
C 2.162843 -0.247736 0.077940
C 2.954228 -1.280790 -0.669138
C 4.465624 -1.081839 -0.533071
C 5.273689 -2.155137 -1.249461
N 6.699247 -1.905237 -1.138219
C 7.524377 -2.904333 -1.784650
C 9.000588 -2.507240 -1.842901
C 9.623560 -2.309950 -0.467706
O 9.723018 -3.454141 -2.604346
H 0.755535 1.339756 0.137717
H 1.091121 0.602909 -1.545512
H 2.338897 -0.203982 1.161408
H 2.670001 -1.270553 -1.734840
H 2.692612 -2.281410 -0.279761
H 4.739913 -1.076187 0.537319
H 4.750429 -0.094466 -0.933872
H 5.004116 -2.162020 -2.320583
H 4.984281 -3.154712 -0.854953
H 6.941615 -1.853371 -0.149587
H 7.174829 -3.031851 -2.822532
H 7.449654 -3.908223 -1.304606
H 9.069943 -1.559547 -2.402443
H 9.525399 -3.226538 0.139383
H 9.144413 -1.482873 0.078235
H 10.693725 -2.074789 -0.567969
H 9.715132 -4.286039 -2.114409