33
H21 C10 N1 O1
C 3.304272 1.915646 -6.356383
C 3.025050 3.406779 -6.517028
C 1.693603 3.923379 -5.956097
N 1.615172 3.875995 -4.500544
C 1.350092 2.580564 -3.887968
C 0.456234 2.675994 -2.642314
C 0.774562 1.585383 -1.635952
O -0.920734 2.552992 -2.936824
C -1.458149 3.511568 -3.798009
C 1.476592 5.358487 -6.394702
C 0.851977 5.658088 -7.724756
C 0.084508 5.924462 -6.456258
H 4.186600 1.624261 -6.947435
H 2.454460 1.308949 -6.709532
H 3.506606 1.635052 -5.313325
H 3.033828 3.648896 -7.593068
H 3.840283 3.992371 -6.057630
H 0.879328 3.309911 -6.409396
H 0.899512 4.536916 -4.211529
H 2.296735 2.097926 -3.595384
H 0.851381 1.881829 -4.592100
H 0.638569 3.665904 -2.170195
H 0.679386 0.591523 -2.101927
H 0.076910 1.636597 -0.787463
H 1.799700 1.694306 -1.253459
H -2.550625 3.383313 -3.799345
H -1.104812 3.396607 -4.840345
H -1.234526 4.545300 -3.465902
H 2.263216 6.044532 -6.060097
H 0.536974 4.808301 -8.338113
H 1.227915 6.512461 -8.293639
H -0.744250 5.251232 -6.216893
H -0.069631 6.962337 -6.149597