28
H17 C9 N1 O1
C 1.416988 -0.749437 0.846420
C 2.651706 -0.939960 0.381332
C 3.093914 -0.656490 -1.026343
N 4.240571 0.221568 -1.064970
C 4.004777 1.576964 -0.574767
C 4.987989 2.489441 -1.341852
O 4.320998 3.415130 -2.172406
C 5.871506 1.491786 -2.126736
C 6.537351 2.044018 -3.380688
C 7.502821 3.189906 -3.102320
C 4.909978 0.328295 -2.347274
H 1.150858 -0.990839 1.879878
H 0.622194 -0.347734 0.207540
H 3.431411 -1.332179 1.046841
H 2.236919 -0.252041 -1.612898
H 3.384351 -1.609753 -1.502011
H 4.136799 1.634185 0.518153
H 2.973811 1.926163 -0.792279
H 5.589361 3.101998 -0.655708
H 3.793967 2.921528 -2.813416
H 6.653399 1.140086 -1.431272
H 7.073761 1.219617 -3.880530
H 5.763256 2.379708 -4.090587
H 8.283267 2.889828 -2.384105
H 6.972514 4.058343 -2.682465
H 8.006611 3.520114 -4.023936
H 5.418729 -0.613297 -2.609776
H 4.204783 0.562821 -3.180814