30
H19 C9 N1 O1
C 8.038004 -6.285342 5.869115
C 8.885188 -6.165677 4.845439
C 9.251806 -4.878674 4.166545
C 8.893104 -4.870485 2.678779
C 9.296364 -3.581470 1.976484
N 8.962430 -3.620802 0.565405
C 9.307432 -2.412675 -0.156415
C 8.962088 -2.510655 -1.642216
O 7.556962 -2.530658 -1.834519
C 9.617829 -3.691276 -2.358957
C 11.136445 -3.734146 -2.254428
H 7.811983 -7.259287 6.313936
H 7.539610 -5.411450 6.304405
H 9.358167 -7.070290 4.439636
H 10.340736 -4.719120 4.266862
H 8.758936 -4.034060 4.676749
H 7.804345 -5.019765 2.566532
H 9.379247 -5.719261 2.168213
H 10.387632 -3.439217 2.071347
H 8.828876 -2.716946 2.498487
H 7.959401 -3.781830 0.475084
H 10.390373 -2.232209 -0.048593
H 8.800359 -1.510859 0.249932
H 9.312379 -1.575694 -2.112952
H 7.256518 -3.441471 -1.730512
H 9.311223 -3.645345 -3.416922
H 9.196993 -4.624516 -1.945386
H 11.589756 -2.782762 -2.577720
H 11.550284 -4.532728 -2.888620
H 11.462979 -3.930881 -1.221552