33
H21 C9 N1 O2
C 1.077897 2.020151 -0.238364
C 2.466776 2.505523 0.153828
C 3.045360 3.537789 -0.816337
O 2.156072 4.627188 -0.995167
C 4.444180 3.981539 -0.382398
N 5.184482 4.736489 -1.378486
C 4.846166 6.144383 -1.415763
C 6.616764 4.478264 -1.394884
C 7.037915 3.524409 -2.522065
C 6.464965 2.127386 -2.374052
O 8.446755 3.405037 -2.560823
C 9.107777 4.419701 -3.259250
H 0.686687 1.295971 0.492366
H 1.094483 1.527889 -1.224409
H 0.370759 2.860498 -0.299002
H 3.161708 1.651559 0.212134
H 2.438083 2.950544 1.165780
H 3.136772 3.077907 -1.815139
H 2.042809 5.051852 -0.134601
H 5.010953 3.070306 -0.144610
H 4.354358 4.546616 0.574998
H 3.760096 6.261689 -1.518508
H 5.322100 6.628852 -2.282244
H 5.165971 6.692176 -0.500580
H 6.975200 4.064259 -0.432143
H 7.153737 5.429382 -1.535228
H 6.674808 3.958233 -3.475940
H 6.803707 1.667926 -1.431439
H 6.797100 1.491002 -3.207835
H 5.365942 2.153988 -2.376509
H 10.186509 4.209624 -3.217263
H 8.940841 5.424471 -2.827289
H 8.802326 4.454027 -4.323329