35
H23 C10 N1 O1
C 12.502182 4.283042 -0.626025
C 11.989065 2.862965 -0.395255
C 13.185949 1.919778 -0.261345
N 11.125839 2.762839 0.790087
C 10.216268 3.874792 0.982896
C 10.403292 1.496796 0.865781
C 10.239384 0.984946 2.293656
C 9.450244 -0.318402 2.372367
C 9.295618 -0.838071 3.798566
C 8.621413 -2.205386 3.925002
C 7.187408 -2.224711 3.410468
O 8.683876 -2.665096 5.263396
H 13.221196 4.281063 -1.458674
H 13.022810 4.661209 0.269307
H 11.702032 4.989689 -0.887440
H 11.413096 2.569795 -1.303648
H 13.810303 2.225601 0.593866
H 13.804876 1.951185 -1.171222
H 12.889390 0.872964 -0.103741
H 10.752435 4.812880 1.182273
H 9.581646 3.681407 1.860181
H 9.537405 4.041958 0.116405
H 10.941601 0.731414 0.288283
H 9.404644 1.584411 0.383341
H 9.738094 1.750150 2.911444
H 11.243524 0.845077 2.729789
H 9.951251 -1.087823 1.757084
H 8.456173 -0.163969 1.918729
H 8.721206 -0.107249 4.398963
H 10.289182 -0.916860 4.271334
H 9.211632 -2.935989 3.344884
H 6.576489 -1.470684 3.936178
H 6.737779 -3.213927 3.584009
H 7.136255 -2.011066 2.332389
H 8.173251 -2.047858 5.802081