36
H23 C11 N1 O1
C 0.903795 0.298437 0.298610
C 2.394859 0.013560 0.435652
C 2.856743 -1.350021 -0.100482
C 2.505367 -1.543770 -1.592006
C 1.261207 -2.392821 -1.833752
C 4.359903 -1.516343 0.204227
N 4.950200 -2.842277 0.103018
C 4.292774 -3.845932 0.916542
C 5.193203 -5.055699 1.090409
O 5.568426 -5.585832 -0.156990
C 6.217105 -4.621476 -0.944050
C 5.355610 -3.380203 -1.193735
C 6.144241 -2.387572 -2.035446
H 0.647849 1.270371 0.748774
H 0.301013 -0.472477 0.806072
H 0.584850 0.332947 -0.754846
H 2.672774 0.084351 1.501442
H 2.966741 0.807345 -0.079766
H 2.317398 -2.121701 0.478518
H 3.345902 -2.012361 -2.121349
H 2.379931 -0.555021 -2.067744
H 1.402542 -3.412712 -1.439179
H 1.035962 -2.481045 -2.908447
H 0.372811 -1.969985 -1.339866
H 4.522571 -1.180200 1.244349
H 4.933997 -0.819309 -0.426210
H 3.331436 -4.186634 0.471951
H 4.061697 -3.420475 1.906518
H 4.671076 -5.851182 1.642168
H 6.093281 -4.762809 1.668443
H 6.463967 -5.101595 -1.902732
H 7.164167 -4.302708 -0.459683
H 4.474182 -3.728144 -1.777841
H 6.987015 -1.974200 -1.458636
H 5.526568 -1.549653 -2.387400
H 6.549645 -2.891964 -2.925751