27
H16 C8 N1 O1 F1
C 0.874827 1.099378 -0.490221
C 2.139885 0.312708 -0.155469
C 3.319212 1.087983 0.448592
C 3.757196 2.315582 -0.346119
N 2.888573 3.383884 0.129701
C 3.290333 4.717256 -0.231880
C 2.134509 5.691752 -0.113793
F 2.557092 6.955287 -0.497189
C 2.584098 3.158216 1.535801
C 3.043439 1.714868 1.838032
O 2.190639 0.990340 2.681100
H 0.120798 0.433731 -0.938686
H 1.077799 1.913722 -1.200173
H 0.413051 1.556600 0.400266
H 2.502239 -0.178799 -1.073935
H 1.886233 -0.505547 0.539593
H 4.155624 0.377686 0.534617
H 3.651086 2.180077 -1.435847
H 4.829115 2.535076 -0.146058
H 3.630174 4.714420 -1.279900
H 4.138608 5.089238 0.387181
H 1.764264 5.759210 0.921831
H 1.303404 5.384460 -0.768584
H 1.503357 3.265656 1.744649
H 3.109926 3.880158 2.191827
H 4.003148 1.762050 2.374855
H 1.304243 0.998038 2.300089