29
H16 C8 N1 O1 F3
C 6.737389 -4.195327 1.377180
C 6.292212 -2.801521 0.954798
C 6.639917 -2.470152 -0.494031
O 6.085221 -3.410549 -1.399932
C 6.224322 -1.055543 -0.884928
N 6.651298 -0.772331 -2.237011
C 6.275349 0.520360 -2.780997
C 4.773984 0.699137 -3.025313
C 7.039166 0.778522 -4.082049
C 8.540858 0.697017 -3.975508
F 9.018642 1.344250 -2.900176
F 9.012049 -0.554982 -3.917131
F 9.124496 1.262755 -5.050022
H 6.446261 -4.410318 2.416543
H 7.832088 -4.300312 1.305361
H 6.286874 -4.963224 0.730826
H 6.754478 -2.041880 1.606541
H 5.199406 -2.698968 1.087266
H 7.731465 -2.551923 -0.633577
H 5.128400 -3.413098 -1.263396
H 6.694329 -0.332983 -0.196174
H 5.125230 -0.967500 -0.732716
H 6.331248 -1.522795 -2.848814
H 6.597225 1.281734 -2.049594
H 4.411561 -0.044991 -3.753826
H 4.549960 1.702145 -3.419982
H 4.202548 0.572929 -2.094032
H 6.804962 1.786440 -4.453457
H 6.733234 0.062885 -4.861769