34
H21 C11 N1 O1
C 3.733679 -6.432018 -1.004265
C 3.633084 -5.113072 -1.172106
C 2.339785 -4.371785 -1.384774
N 2.270049 -3.182966 -0.549871
C 3.082446 -2.071656 -1.031819
C 3.967534 -1.466075 0.056935
C 4.663660 -0.177501 -0.382131
C 5.615621 -0.338531 -1.562683
O 4.953700 -2.406004 0.447934
C 4.700866 -3.083662 1.646245
C 0.975518 -2.744792 -0.104043
C -0.267841 -2.755506 -0.964426
C -0.154464 -3.657917 0.247444
H 4.704651 -6.916734 -0.863693
H 2.849883 -7.080500 -1.003083
H 4.538198 -4.493693 -1.150058
H 1.506685 -5.046920 -1.146006
H 2.234814 -4.119777 -2.463109
H 2.448472 -1.279289 -1.478282
H 3.740049 -2.428349 -1.838593
H 3.329293 -1.223008 0.927392
H 3.890684 0.573282 -0.617402
H 5.220203 0.209249 0.487260
H 5.084794 -0.611985 -2.487996
H 6.361418 -1.121025 -1.356509
H 6.156118 0.599870 -1.760150
H 5.529398 -3.788218 1.813475
H 3.757081 -3.654339 1.610472
H 4.659982 -2.391406 2.510243
H 1.071570 -1.874692 0.553705
H -0.198929 -3.239847 -1.943249
H -0.950577 -1.901999 -0.925375
H -0.054069 -4.732139 0.071252
H -0.740755 -3.410037 1.136486