33
H21 C10 N1 O1
C 2.152573 1.193115 -0.099726
C 0.799914 0.632077 0.327358
C -0.299713 1.229678 -0.557841
C -1.684394 0.687013 -0.228576
C -1.659379 -0.835460 -0.270363
C -0.553897 -1.369720 0.627556
N 0.755912 -0.833103 0.275834
C 1.830036 -1.495145 1.011061
C 2.954016 -2.050561 0.128061
C 4.103591 -2.582584 0.976660
C 2.408627 -3.120213 -0.816898
O 3.370903 -3.623939 -1.714411
H 2.120706 2.292821 -0.067814
H 2.391334 0.888692 -1.131510
H 2.975201 0.871165 0.554453
H 0.608228 0.967654 1.375438
H -0.055773 0.999301 -1.610397
H -0.277199 2.326381 -0.455351
H -2.434180 1.090393 -0.927604
H -1.978810 1.019504 0.782846
H -1.477844 -1.175592 -1.304703
H -2.625192 -1.258764 0.048176
H -0.508594 -2.466595 0.545276
H -0.809149 -1.139337 1.688694
H 1.405931 -2.340034 1.580927
H 2.264309 -0.822138 1.775074
H 3.334795 -1.226909 -0.501821
H 3.750095 -3.360990 1.674515
H 4.568345 -1.781829 1.573637
H 4.880057 -3.031416 0.340310
H 1.534476 -2.706472 -1.353277
H 2.051152 -3.982570 -0.227439
H 3.669048 -2.889163 -2.263446