27
H18 C7 N2
C 0.934443 0.046354 0.010274
C 2.457001 0.086189 -0.120637
C 2.871568 0.822808 -1.395208
C 3.085639 0.695093 1.138406
C 4.608939 0.693654 1.165900
N 5.110184 1.193065 2.432725
C 6.555378 1.216700 2.528577
C 7.014305 1.771303 3.869641
N 8.467555 1.821339 3.937883
H 0.469163 -0.437129 -0.863433
H 0.520633 1.066228 0.087604
H 0.621535 -0.509463 0.908630
H 2.815707 -0.956696 -0.201489
H 2.593890 1.889472 -1.339203
H 2.371789 0.393879 -2.278374
H 3.956295 0.767486 -1.573838
H 2.722050 0.134266 2.018448
H 2.728216 1.733021 1.265368
H 5.002810 1.343305 0.365627
H 4.978277 -0.331846 0.936207
H 4.737026 0.614843 3.185555
H 6.957801 1.858740 1.725900
H 7.012955 0.212082 2.376777
H 6.549994 1.168977 4.679266
H 6.615032 2.793233 3.976733
H 8.837975 0.871302 3.979337
H 8.754881 2.258126 4.812543