28
H17 C9 N1 O1
C 1.085932 -0.401352 -0.008881
C 2.180994 0.156221 -0.528226
C 2.766650 1.471738 -0.108037
C 4.190816 1.321599 0.431729
N 4.748912 2.572903 0.894472
C 4.950204 3.577514 -0.149643
C 5.982010 4.559240 0.441266
C 6.307928 3.979335 1.824953
O 5.486977 4.518380 2.835685
C 6.019291 2.486317 1.618352
C 5.958279 1.670165 2.896580
H 0.714309 -1.368071 -0.362087
H 0.516148 0.090882 0.787606
H 2.720573 -0.375699 -1.323362
H 2.138474 1.944704 0.664447
H 2.775948 2.148236 -0.980080
H 4.835512 0.861758 -0.353274
H 4.166458 0.613843 1.274256
H 4.000349 4.066656 -0.413603
H 5.344424 3.109941 -1.076951
H 5.596436 5.583241 0.541304
H 6.886030 4.599192 -0.183110
H 7.348696 4.164384 2.127946
H 4.592061 4.211179 2.631206
H 6.819600 2.067985 0.964584
H 5.130979 2.004668 3.539513
H 6.898471 1.786339 3.457081
H 5.828208 0.597282 2.692234