26
H17 C7 N1 O1
C 1.126040 0.556763 0.244833
C 2.408196 -0.174442 -0.140080
C 2.854862 -1.262225 0.855204
C 2.342431 -2.660590 0.483005
C 0.830924 -2.799436 0.350845
N 4.316537 -1.272996 0.915065
C 4.901029 -2.029569 2.004076
C 6.411492 -1.836868 2.041998
O 7.030844 -2.616336 3.032388
H 0.865516 1.315657 -0.509440
H 1.245100 1.075208 1.210117
H 0.267335 -0.123197 0.340324
H 3.214685 0.573580 -0.223408
H 2.308634 -0.617009 -1.146510
H 2.429075 -1.005577 1.853530
H 2.690450 -3.378001 1.243412
H 2.832179 -2.952550 -0.462808
H 0.312400 -2.468194 1.265393
H 0.555662 -3.851322 0.178187
H 0.432015 -2.216242 -0.493247
H 4.632822 -0.307719 0.997766
H 4.704210 -3.105483 1.873486
H 4.477030 -1.749999 2.996330
H 6.644466 -0.759630 2.166022
H 6.834951 -2.144926 1.073060
H 6.711364 -2.312006 3.889988