21
H13 C5 N1 O2
C 3.959987 -0.774137 -1.512314
O 4.214094 0.609512 -1.422480
C 4.912835 1.145152 -0.340261
O 6.306414 1.011043 -0.441954
C 6.863757 -0.279467 -0.423427
C 4.381931 0.731054 1.052766
C 2.886904 0.997012 1.160810
N 5.091611 1.432393 2.116755
H 2.923501 -0.914777 -1.857795
H 4.072309 -1.306393 -0.555718
H 4.630848 -1.250257 -2.247297
H 4.754044 2.233174 -0.428482
H 7.943836 -0.163424 -0.253310
H 6.726636 -0.805393 -1.383639
H 6.460706 -0.916088 0.383124
H 4.552379 -0.346673 1.208207
H 2.665998 2.060340 0.966987
H 2.535897 0.756775 2.175322
H 2.310172 0.396755 0.443294
H 4.930611 2.436535 2.013537
H 6.095049 1.312963 1.978005