27
H16 C8 N1 O1 F1
O 3.506853 -0.888656 -2.651891
C 2.681409 -0.428377 -1.612626
C 2.536730 -1.491065 -0.541583
C 2.209204 -2.931612 -0.980246
C 3.266239 -3.365431 0.046678
N 3.767504 -1.989013 0.094770
C 4.164864 -1.467720 1.380565
C 4.683010 -0.037036 1.306735
C 5.218000 0.463502 2.644267
C 5.699111 1.894115 2.563512
F 6.181837 2.309060 3.798436
H 3.509367 -0.220708 -3.345151
H 1.663746 -0.185062 -1.978967
H 3.085708 0.494489 -1.154197
H 1.808192 -1.119214 0.210194
H 2.517411 -3.118391 -2.017189
H 1.180772 -3.281525 -0.822437
H 4.005695 -4.125530 -0.257631
H 2.807014 -3.687413 1.003399
H 4.960663 -2.122385 1.776839
H 3.325193 -1.515627 2.113859
H 3.871842 0.629210 0.966985
H 5.472381 0.012319 0.537556
H 6.053783 -0.173404 2.979562
H 4.431829 0.397577 3.415276
H 4.880730 2.574461 2.275545
H 6.514946 1.999445 1.829491