32
H21 C9 N1 O1
C 1.364285 0.256618 0.721614
O 2.289097 -0.086930 -0.273467
C 2.895481 -1.362662 -0.126326
C 2.474870 -2.236773 -1.305979
N 1.033412 -2.229715 -1.451013
C 0.510851 -2.983173 -2.586508
C 0.653906 -4.486283 -2.362153
C -0.948685 -2.598000 -2.798569
C 4.415843 -1.188126 -0.004015
C 4.763594 -0.298579 1.188579
C 5.143585 -2.529561 0.085568
H 0.967388 1.253547 0.479405
H 1.827466 0.303654 1.725005
H 0.518618 -0.454592 0.763775
H 2.520052 -1.838721 0.800318
H 2.822481 -3.264447 -1.123066
H 2.997458 -1.882043 -2.223424
H 0.749082 -1.256313 -1.550998
H 1.069708 -2.727757 -3.515131
H 0.133859 -4.783970 -1.436709
H 1.707300 -4.792774 -2.274745
H 0.217343 -5.046925 -3.202998
H -1.544414 -2.841774 -1.903699
H -1.378660 -3.134435 -3.657733
H -1.049077 -1.517331 -2.990488
H 4.747824 -0.671924 -0.923129
H 4.462218 -0.774623 2.137166
H 4.257703 0.675297 1.118328
H 5.848128 -0.113534 1.237315
H 4.755143 -3.134532 0.922565
H 6.219363 -2.373286 0.260978
H 5.045926 -3.123603 -0.835206