23
H13 C7 N1 O2
C 1.016268 0.000719 0.007820
O 2.424652 0.132103 0.149299
C 3.018738 1.083138 -0.575196
O 2.423327 1.821129 -1.317085
C 4.511698 1.076129 -0.317368
N 5.210867 2.116854 -1.033687
C 6.658561 1.925591 -1.062986
C 7.201679 2.493186 0.266833
C 6.145370 3.544402 0.675181
C 5.059680 3.438217 -0.424197
H 0.714912 -0.818042 0.671434
H 0.745214 -0.243054 -1.029919
H 0.502711 0.927481 0.303310
H 4.877945 0.090672 -0.647345
H 4.649563 1.094841 0.784700
H 7.067265 2.504357 -1.908768
H 6.914488 0.869635 -1.230761
H 8.207105 2.921821 0.145278
H 7.276627 1.697839 1.023957
H 6.559458 4.561790 0.727942
H 5.725171 3.316042 1.666063
H 5.233158 4.202374 -1.199830
H 4.037904 3.583314 -0.048036