20
H13 C6 N1
C 1.003526 -0.063596 -0.195552
C 2.515450 -0.065450 -0.039522
C 3.081077 -1.289835 0.688937
N 4.382511 -0.884004 1.231099
C 4.505783 0.573747 1.112618
C 3.093229 1.081730 0.802785
C 3.055575 2.456175 0.154213
H 0.659238 -0.940553 -0.766836
H 0.652931 0.834847 -0.727154
H 0.506778 -0.088017 0.788908
H 2.982723 -0.009547 -1.041065
H 3.176257 -2.168107 0.031378
H 2.388951 -1.576850 1.505364
H 5.136834 -1.345049 0.733185
H 5.186410 0.863031 0.288843
H 4.907334 1.030401 2.034433
H 2.520786 1.117999 1.748978
H 3.579113 2.447887 -0.816456
H 3.541123 3.212364 0.791661
H 2.021278 2.789979 -0.023135