31
H19 C10 N1 O1
C 1.695421 -1.525435 -1.137613
C 0.463500 -0.712066 -0.760106
C -0.270563 -1.448843 0.363476
O -1.404339 -0.769336 0.830612
C -1.060798 0.511344 1.297800
C -0.399955 1.322008 0.202080
N 0.781682 0.645966 -0.313140
C 1.496527 1.479775 -1.274722
C 2.764988 2.119034 -0.722049
C 2.750685 2.863071 0.633272
C 4.172801 2.323633 0.893133
C 3.894183 1.229188 -0.157781
H 1.390823 -2.532596 -1.461460
H 2.372083 -1.632737 -0.275339
H 2.264590 -1.076075 -1.962494
H -0.222828 -0.674946 -1.637688
H 0.445279 -1.614473 1.196016
H -0.605656 -2.432015 0.001382
H -0.376205 0.433028 2.166950
H -1.986607 1.001727 1.631923
H -0.115012 2.306949 0.601684
H -1.145495 1.499538 -0.606172
H 0.827993 2.277415 -1.652370
H 1.769600 0.888991 -2.162913
H 3.178751 2.784786 -1.498459
H 2.030164 2.397930 1.323405
H 2.592149 3.952666 0.627613
H 4.420767 2.002666 1.916262
H 4.944063 3.030151 0.548707
H 3.469817 0.330931 0.315806
H 4.708072 0.929105 -0.836023