32
H21 C9 N1 O1
C 1.036269 -0.157581 -0.031534
O 2.429406 -0.086279 -0.085880
C 2.915194 0.332275 -1.328790
C 4.430982 0.373370 -1.279687
N 4.972278 0.789872 -2.556474
C 6.422783 0.785536 -2.611622
C 6.931504 1.252755 -3.968765
C 8.454260 1.249075 -4.066736
C 9.021445 1.579808 -5.453795
C 8.617182 2.974106 -5.934109
C 10.542437 1.426830 -5.459161
H 0.749398 -0.494129 0.975117
H 0.627923 -0.875632 -0.769917
H 0.562133 0.826167 -0.219319
H 2.518689 1.337968 -1.585419
H 2.591013 -0.354088 -2.137577
H 4.801887 -0.639466 -1.047193
H 4.743039 1.024177 -0.434274
H 4.639338 1.730728 -2.767212
H 6.773546 -0.244931 -2.423056
H 6.879238 1.413119 -1.813580
H 6.542042 2.267893 -4.159896
H 6.501625 0.602025 -4.750191
H 8.825924 0.253165 -3.766590
H 8.871353 1.962865 -3.331765
H 8.605216 0.843281 -6.165978
H 8.961040 3.747426 -5.225582
H 7.526553 3.077362 -6.040224
H 9.065067 3.198465 -6.915365
H 11.011540 2.145418 -4.765469
H 10.961277 1.609656 -6.461575
H 10.846970 0.414971 -5.147092