33
H21 C10 N1 O1
C 1.115766 -0.257365 -0.047665
O 2.420220 -0.085167 0.421610
C 2.869019 1.252683 0.479601
C 2.263287 2.008120 1.656460
C 4.391752 1.178914 0.537927
N 5.003516 2.492860 0.514912
C 6.454705 2.500162 0.334547
C 6.818554 2.220069 -1.120767
C 6.989282 3.852419 0.817017
C 8.492934 3.995724 0.767284
C 9.176152 4.574704 -0.441763
C 9.118262 5.361459 0.839511
H 0.931732 -1.337836 -0.138172
H 0.971259 0.204307 -1.044246
H 0.351606 0.160942 0.633981
H 2.592023 1.775556 -0.458900
H 2.558439 1.537839 2.608494
H 1.164583 2.023073 1.602284
H 2.599915 3.055870 1.660436
H 4.720789 0.605956 -0.341990
H 4.680848 0.579567 1.429169
H 4.792456 2.965170 1.392035
H 6.930381 1.712599 0.961182
H 6.418750 3.012358 -1.774527
H 6.405655 1.258685 -1.461513
H 7.908906 2.173295 -1.255225
H 6.651157 4.001279 1.858598
H 6.518240 4.652775 0.219019
H 9.038587 3.197326 1.283389
H 8.540839 4.903083 -1.269667
H 10.136984 4.152498 -0.748743
H 8.444402 6.222995 0.878606
H 10.039351 5.481110 1.416276