22
H14 C6 O2
C 1.045975 0.029539 -0.014098
C 2.568434 -0.000504 0.032478
C 3.128428 -1.342860 0.492418
C 4.654382 -1.368211 0.583214
O 5.152289 -0.347969 1.422565
C 5.155336 -2.739452 1.010654
O 6.548281 -2.792561 0.918493
C 7.081435 -4.014397 1.331115
H 0.672616 1.009632 -0.349507
H 0.612445 -0.169926 0.979675
H 0.650856 -0.732437 -0.705884
H 2.940435 0.787308 0.706813
H 2.975826 0.235469 -0.966253
H 2.797313 -2.139832 -0.195120
H 2.710557 -1.597305 1.485137
H 5.076281 -1.155921 -0.414209
H 4.807892 -0.508962 2.310279
H 4.688870 -3.517128 0.371336
H 4.821226 -2.941691 2.052153
H 8.174203 -3.966787 1.218532
H 6.704463 -4.860934 0.723090
H 6.849038 -4.232493 2.392539