17
H9 C6 N1 O1
C 0.982909 -0.043395 0.127243
O 2.372152 0.001335 -0.038004
C 2.934592 1.220077 0.346166
C 4.415153 1.197076 0.040185
C 4.731962 1.048554 -1.362993
N 4.975761 0.931005 -2.488595
C 5.363833 0.552488 1.033652
C 5.354247 2.036032 0.885234
H 0.634904 -1.031775 -0.203435
H 0.470880 0.730647 -0.476216
H 0.688674 0.097481 1.185180
H 2.803910 1.402031 1.431340
H 2.452986 2.064285 -0.187102
H 6.214623 -0.002913 0.632940
H 4.890763 0.109950 1.913621
H 6.194855 2.513207 0.377113
H 4.879164 2.638754 1.663251