30
H17 C9 N1 O1 F2
C 4.444231 4.019510 -4.531086
C 4.088895 2.999594 -3.747745
C 4.998852 2.282127 -2.794725
C 5.172899 0.804945 -3.160707
C 5.949356 -0.026689 -2.137196
O 5.220060 -0.236729 -0.944852
C 7.327106 0.551572 -1.789863
N 8.143797 0.890183 -2.939833
C 9.176554 1.858823 -2.627836
C 8.643208 -0.255547 -3.671667
C 8.541284 -0.064539 -5.167651
F 9.340133 0.954382 -5.595038
F 8.980287 -1.188298 -5.799125
H 3.731342 4.492198 -5.213574
H 5.463794 4.421756 -4.518074
H 3.057593 2.624853 -3.798251
H 4.572844 2.360561 -1.777490
H 5.980436 2.781909 -2.775203
H 5.684750 0.737018 -4.133271
H 4.183752 0.333082 -3.285434
H 6.076000 -1.034054 -2.566264
H 5.125174 0.613713 -0.498527
H 7.836578 -0.155531 -1.100131
H 7.165483 1.478299 -1.214264
H 8.722823 2.778774 -2.228820
H 9.733168 2.125631 -3.535762
H 9.906477 1.482141 -1.878803
H 8.049652 -1.151316 -3.440018
H 9.696809 -0.497619 -3.424739
H 7.515063 0.148978 -5.504714