23
H13 C7 N2 F1
C 1.056668 0.165675 -0.165872
N 2.468939 -0.112304 0.015035
C 2.736074 -0.710116 1.306494
C 2.620059 0.274464 2.392247
N 2.522887 1.051374 3.242323
C 3.036396 -0.886976 -1.082106
C 4.547879 -0.736516 -1.214282
C 5.098811 -1.503402 -2.412290
C 6.596072 -1.345354 -2.547593
F 7.054832 -2.058403 -3.647799
H 0.683344 0.794806 0.656983
H 0.436665 -0.755760 -0.197263
H 0.901061 0.718039 -1.103933
H 3.763744 -1.099255 1.346824
H 2.062536 -1.559791 1.548658
H 2.568459 -0.523840 -2.010109
H 2.768325 -1.963283 -0.999746
H 5.052376 -1.090176 -0.299156
H 4.784174 0.336612 -1.308413
H 4.620005 -1.149940 -3.340896
H 4.863696 -2.576724 -2.315632
H 7.120030 -1.726937 -1.655769
H 6.874216 -0.288211 -2.690205