36
H24 C11 O1
C 3.784751 -6.236054 0.533032
C 3.515214 -5.174154 1.592247
C 4.351307 -3.910586 1.407190
C 4.068635 -2.842335 2.459353
C 5.047342 -1.661721 2.463363
C 4.986559 -0.834476 1.180095
C 5.826674 0.433806 1.245490
O 6.397544 -2.052487 2.614424
C 6.941636 -2.483088 3.865150
C 6.272225 -1.819719 5.069858
C 6.854025 -4.009809 3.980013
C 8.409925 -2.061565 3.797807
H 3.174609 -7.137804 0.698106
H 4.843468 -6.543296 0.539335
H 3.556393 -5.858966 -0.477353
H 3.714187 -5.594165 2.594305
H 2.443571 -4.907005 1.584290
H 4.168517 -3.501969 0.398017
H 5.422274 -4.171416 1.441117
H 4.072506 -3.306084 3.459743
H 3.050244 -2.438472 2.323089
H 4.753324 -0.992614 3.293064
H 5.322656 -1.459215 0.335759
H 3.931337 -0.580460 0.985358
H 6.883466 0.188598 1.426383
H 5.490460 1.092266 2.063547
H 5.763689 1.006518 0.307273
H 5.226576 -2.138862 5.194478
H 6.297248 -0.722182 4.985361
H 6.814272 -2.099746 5.985410
H 5.811988 -4.355341 4.035120
H 7.372330 -4.358703 4.886789
H 7.330708 -4.485243 3.109188
H 8.492726 -0.965054 3.746679
H 8.882638 -2.484057 2.898001
H 8.965726 -2.413170 4.680217