21
H13 C5 N1 O2
C 1.168517 -0.570083 -0.318470
N 2.315135 0.302725 -0.458761
C 2.428509 0.818305 -1.806266
C 2.357478 1.348856 0.542659
C 2.847332 0.865783 1.910223
O 2.783131 1.921102 2.851614
C 4.305562 0.432675 1.879275
O 5.154941 1.513112 1.590493
H 1.239405 -1.406351 -1.031007
H 0.205100 -0.044497 -0.506377
H 1.122101 -1.000269 0.692400
H 2.465345 -0.014226 -2.526105
H 3.355357 1.401514 -1.916338
H 1.576133 1.473344 -2.095184
H 3.057284 2.129988 0.209521
H 1.363463 1.837867 0.670917
H 2.238191 0.005906 2.247643
H 1.919281 2.344775 2.785802
H 4.436256 -0.328982 1.096451
H 4.559447 -0.031595 2.852612
H 4.850960 2.237032 2.154557