12
H6 C3 O3
C 1.127579 -0.001472 0.019049
C 2.635042 -0.015761 0.056942
O 3.115312 0.624261 -1.133367
C 4.425606 0.693198 -1.282309
O 5.251399 0.270231 -0.513400
O 4.697221 1.310432 -2.428529
H 0.735784 -0.485679 0.925347
H 0.749097 -0.549576 -0.856564
H 0.742619 1.028527 -0.016060
H 3.028930 -1.043167 0.093652
H 3.022860 0.525271 0.933920
H 5.662130 1.348984 -2.517060