35
H23 C10 N1 O1
C 0.973969 -0.059036 0.577587
C 2.495117 -0.141030 0.541546
C 3.162663 1.231961 0.476380
C 4.699179 1.202680 0.389907
C 5.220058 1.296743 -1.050496
C 4.714677 0.223254 -2.005993
N 5.237359 2.305137 1.181996
C 6.664925 2.270896 1.427200
C 7.025251 3.224435 2.562881
O 6.283206 2.907381 3.729912
C 8.526321 3.261420 2.836489
C 8.916347 4.246254 3.930629
H 0.517162 -1.058280 0.650197
H 0.579521 0.423236 -0.331837
H 0.626434 0.531015 1.441618
H 2.808167 -0.757025 -0.316370
H 2.858017 -0.669333 1.440578
H 2.873155 1.793712 1.381571
H 2.754134 1.808504 -0.373101
H 5.045851 0.225612 0.802802
H 6.321365 1.254748 -1.030887
H 4.956412 2.298253 -1.434457
H 4.933277 -0.789087 -1.628690
H 5.201171 0.321492 -2.988726
H 3.628496 0.293538 -2.171687
H 4.786359 2.294333 2.095950
H 7.226261 2.570347 0.527074
H 7.024178 1.249852 1.697661
H 6.684731 4.234730 2.277538
H 6.591822 2.046854 4.043944
H 9.045815 3.512743 1.897148
H 8.857935 2.243024 3.110330
H 8.643070 5.276909 3.652065
H 10.000399 4.224967 4.119377
H 8.401305 4.009033 4.873414