36
H23 C11 N1 O1
C 10.531561 -3.459789 8.888695
C 9.926842 -3.103293 7.756016
C 9.807771 -1.693570 7.265149
O 10.247130 -1.629660 5.933538
C 10.117015 -0.354909 5.356061
C 10.534079 -0.395951 3.886591
N 9.558886 -0.776923 2.884470
C 8.585421 0.248405 2.596544
C 9.030694 -2.141584 2.846842
C 7.930363 -2.442275 3.874799
C 10.143328 -3.190199 2.916150
C 11.194180 -3.076804 1.815352
C 12.286801 -4.133479 1.925733
H 10.560453 -4.503126 9.216522
H 11.016052 -2.720376 9.536238
H 9.452742 -3.864553 7.123999
H 10.391872 -1.006241 7.909383
H 8.746766 -1.370316 7.329410
H 10.765855 0.364144 5.895395
H 9.076428 0.014816 5.457493
H 11.421977 -1.046387 3.820752
H 10.879989 0.616406 3.619920
H 9.094736 1.190097 2.331841
H 7.887430 0.479314 3.429962
H 7.969911 -0.051733 1.733111
H 8.565615 -2.236918 1.846769
H 8.340227 -2.445868 4.894400
H 7.485976 -3.431065 3.678617
H 7.117153 -1.701839 3.824913
H 9.667067 -4.183929 2.856422
H 10.621805 -3.145190 3.909448
H 11.646851 -2.072333 1.839121
H 10.696028 -3.158499 0.833122
H 12.823051 -4.050694 2.885474
H 13.030188 -4.033900 1.119331
H 11.867758 -5.151718 1.869118