34
H21 C11 N1 O1
C 3.168907 1.755126 -0.286479
C 4.055631 0.912047 0.243452
C 4.840121 1.159355 1.502530
N 6.283761 1.082105 1.295303
C 6.935847 2.379853 1.265103
C 6.480174 3.226245 0.109892
C 6.006759 4.468112 0.214797
C 6.974353 0.062018 2.059893
C 6.912785 -1.328205 1.423479
O 5.580228 -1.783146 1.270374
C 7.743241 -2.364416 2.181861
C 9.251946 -2.126929 2.189024
C 10.025318 -3.275178 2.827130
H 2.619552 1.510445 -1.200918
H 2.959819 2.727815 0.173926
H 4.260648 -0.053514 -0.233218
H 4.543263 0.402847 2.247203
H 4.559470 2.141360 1.928791
H 8.019074 2.208607 1.148413
H 6.800772 2.948152 2.212494
H 6.566036 2.755439 -0.877530
H 5.895299 4.955903 1.189906
H 5.713862 5.045537 -0.667222
H 6.592337 -0.008943 3.103330
H 8.033178 0.347631 2.138615
H 7.302861 -1.234473 0.395821
H 5.211688 -1.912964 2.153597
H 7.531246 -3.343508 1.720218
H 7.372232 -2.425750 3.222578
H 9.486174 -1.193277 2.726804
H 9.599252 -1.978856 1.151500
H 9.714247 -3.431710 3.872954
H 11.108772 -3.079516 2.827139
H 9.855388 -4.220241 2.286111