26
H14 C7 N1 O1 F3
C 0.840840 -0.117037 -0.144912
C 2.355571 0.017238 -0.063328
C 2.989573 -0.913331 0.966170
O 2.681800 -2.274858 0.714622
C 4.500279 -0.723176 1.064831
N 5.035788 -1.619036 2.072775
C 6.474329 -1.787968 2.045305
C 7.218847 -0.481858 2.292463
C 6.840097 -2.815699 3.105471
F 6.597165 -2.390537 4.350284
F 6.148513 -3.955958 2.942719
F 8.138926 -3.139680 3.048180
H 0.422417 0.550826 -0.912998
H 0.367911 0.137748 0.817264
H 0.550757 -1.148274 -0.395463
H 2.631729 1.054204 0.189000
H 2.806782 -0.191262 -1.050807
H 2.556338 -0.704032 1.959207
H 2.971742 -2.477624 -0.185090
H 4.711810 0.326058 1.325463
H 4.946924 -0.901756 0.060414
H 4.589894 -2.523798 1.923317
H 6.835374 -2.225649 1.089704
H 6.845910 0.003820 3.206376
H 7.075297 0.205091 1.447861
H 8.298283 -0.660071 2.394974