26
H17 C8 N1
C 2.998771 0.425621 1.342288
C 2.557371 0.041483 -0.068997
C 3.061494 1.092295 -1.060650
C 2.657183 0.768733 -2.489562
C 3.099173 -0.643861 -2.834682
C 2.594497 -1.668553 -1.816334
C 3.074440 -3.061429 -2.220839
N 3.019275 -1.300818 -0.456356
C 2.645029 -2.306392 0.519618
H 2.793102 1.492774 1.513831
H 4.082341 0.263124 1.463588
H 2.473692 -0.134514 2.128240
H 1.440838 0.065520 -0.095558
H 4.162640 1.139518 -0.985465
H 2.673989 2.078487 -0.759897
H 3.088145 1.497883 -3.193990
H 1.559378 0.842777 -2.585389
H 4.202446 -0.694626 -2.859844
H 2.739148 -0.931277 -3.835172
H 1.478419 -1.665051 -1.863992
H 4.156567 -3.163434 -2.036860
H 2.895921 -3.213553 -3.295799
H 2.554150 -3.870491 -1.689943
H 3.068116 -3.283703 0.256586
H 1.541881 -2.428850 0.616148
H 3.041755 -2.056304 1.511278