33
H21 C10 N1 O1
C 1.329384 -0.603381 -0.406459
C 2.228711 0.131367 0.249835
C 2.998197 -0.242450 1.500703
C 2.716696 0.823726 2.572582
C 2.601602 -1.623977 2.029225
C 4.496435 -0.213974 1.114692
N 5.374676 -0.461738 2.242038
C 6.798292 -0.490581 1.935299
C 7.277253 0.840691 1.367349
C 7.595441 -0.849239 3.206344
C 7.131793 -2.137852 3.875601
O 8.978900 -0.909100 2.921751
H 0.839847 -0.216545 -1.305290
H 1.039997 -1.608604 -0.085512
H 2.465518 1.131708 -0.138215
H 1.652356 0.822185 2.856225
H 2.969701 1.831474 2.205112
H 3.319671 0.634268 3.472275
H 1.521034 -1.673097 2.235073
H 3.116891 -1.849628 2.975799
H 2.848699 -2.420862 1.309652
H 4.718593 0.781694 0.698358
H 4.657217 -0.941608 0.287876
H 5.117607 -1.356838 2.650088
H 7.030630 -1.285622 1.185885
H 6.948978 1.669802 2.015879
H 6.893755 1.023029 0.353117
H 8.374332 0.846447 1.319194
H 7.476742 -0.015703 3.919713
H 7.137276 -2.977712 3.159576
H 6.119873 -2.046999 4.297518
H 7.814341 -2.385778 4.701689
H 9.119453 -1.652494 2.321446