27
H16 C8 N1 O1 F1
F 0.860070 -0.160029 0.228696
C 2.237789 -0.287881 0.100931
C 2.685861 0.215465 -1.251932
C 4.194353 0.093216 -1.440114
C 4.657448 0.614355 -2.797912
N 6.101461 0.518260 -2.966184
C 6.688165 1.505089 -3.864917
C 6.501997 1.148632 -5.335901
O 7.017899 -0.135644 -5.609507
C 6.411103 -1.123890 -4.806014
C 6.583946 -0.813419 -3.321455
H 2.491269 -1.352495 0.234730
H 2.706840 0.287393 0.916034
H 2.374909 1.268570 -1.358585
H 2.159025 -0.356844 -2.034148
H 4.490185 -0.963463 -1.323873
H 4.723308 0.654726 -0.651591
H 4.378408 1.677463 -2.877472
H 4.091081 0.091816 -3.597320
H 7.772352 1.560181 -3.659018
H 6.262159 2.498716 -3.657097
H 7.040499 1.860300 -5.979796
H 5.426854 1.194667 -5.606939
H 6.886285 -2.084446 -5.055556
H 5.334081 -1.207781 -5.057842
H 7.658739 -0.873161 -3.074459
H 6.069745 -1.576397 -2.717988