33
H21 C10 N1 O1
C 1.535645 -0.179986 1.199549
C 2.283210 0.189008 0.157619
C 2.995391 -0.743398 -0.776271
C 4.511643 -0.537652 -0.775890
C 5.238969 -1.421786 -1.790346
O 4.722131 -1.233944 -3.094737
C 6.753599 -1.214374 -1.719245
N 7.529468 -2.185232 -2.465260
C 7.572139 -1.965800 -3.910536
C 6.908652 -3.075131 -4.715124
C 8.827905 -2.481180 -1.879225
C 9.425722 -3.792680 -2.368324
H 1.047025 0.557836 1.843292
H 1.380682 -1.236668 1.446485
H 2.413156 1.260497 -0.047593
H 2.628073 -0.583141 -1.803841
H 2.762585 -1.789436 -0.514843
H 4.911853 -0.741007 0.231130
H 4.743626 0.521321 -0.995968
H 5.040459 -2.480609 -1.553282
H 4.904000 -0.320992 -3.353126
H 7.037461 -1.290232 -0.658741
H 6.978895 -0.166031 -2.025742
H 8.622641 -1.849732 -4.237612
H 7.079711 -1.009464 -4.151136
H 7.380942 -4.049711 -4.517315
H 6.982182 -2.874003 -5.796622
H 5.843718 -3.141492 -4.448979
H 8.699170 -2.544261 -0.787322
H 9.558048 -1.658880 -2.059792
H 8.737158 -4.629246 -2.169997
H 10.375454 -3.994089 -1.849012
H 9.638657 -3.774535 -3.448352