30
H19 C10 N1
C 1.040040 -0.035837 -0.159867
C 0.553833 1.109417 -1.037195
N -0.894704 1.154607 -1.100605
C -1.410894 2.239654 -1.916342
C -2.919126 2.288567 -1.892634
C -3.678327 2.781436 -3.092277
C -3.711594 1.321561 -2.725838
C 2.561061 -0.142958 -0.092013
C 3.037613 -1.278672 0.785645
C 3.118090 -2.675465 0.232704
C 4.378635 -1.915523 0.553128
H 0.615085 -0.979969 -0.541379
H 0.637193 0.096222 0.860807
H 0.941583 0.973521 -2.063128
H 0.994219 2.064715 -0.671648
H -1.262345 1.250520 -0.153974
H -1.070722 2.085769 -2.956081
H -1.009192 3.230290 -1.606283
H -3.346573 2.544214 -0.915894
H -3.099658 3.073840 -3.973915
H -4.579110 3.377980 -2.924952
H -3.148448 0.623743 -3.353107
H -4.636706 0.912968 -2.310395
H 2.980585 0.808556 0.280322
H 2.965888 -0.280171 -1.110341
H 2.722380 -1.201977 1.832727
H 2.863109 -2.814738 -0.822777
H 2.838910 -3.511668 0.879553
H 4.976697 -1.544608 -0.285115
H 4.963848 -2.228185 1.422273