30
H19 C9 N1 O1
C 0.864569 0.122053 0.186300
C 2.373539 0.173609 -0.020635
C 2.877843 -0.835231 -1.049755
C 4.388234 -0.790041 -1.259366
C 4.875959 -1.810434 -2.283903
N 6.324061 -1.793032 -2.451356
C 6.829962 -0.693154 -3.267652
C 6.677353 -0.952440 -4.764233
O 7.278073 -2.173839 -5.135696
C 6.741483 -3.260525 -4.413363
C 6.906250 -3.047820 -2.912128
H 0.533159 0.860461 0.932927
H 0.543716 -0.872902 0.536148
H 0.325829 0.331965 -0.752295
H 2.884689 -0.005550 0.941545
H 2.668608 1.189912 -0.335946
H 2.368246 -0.655244 -2.013855
H 2.581559 -1.852852 -0.736063
H 4.908534 -0.977437 -0.304287
H 4.676955 0.227324 -1.575762
H 4.326869 -1.655402 -3.236988
H 4.593025 -2.817331 -1.935802
H 7.903201 -0.557699 -3.044688
H 6.321928 0.244574 -2.997314
H 7.169540 -0.157293 -5.344087
H 5.604587 -0.956940 -5.046161
H 7.277527 -4.164804 -4.738995
H 5.669103 -3.394683 -4.665073
H 7.987326 -3.033460 -2.683770
H 6.463042 -3.889705 -2.358085