27
H17 C7 N1 O2
C 2.940816 -3.248687 1.282135
O 3.495497 -2.476651 0.259156
C 4.499783 -1.599999 0.699157
C 5.040918 -0.832807 -0.497185
C 3.971046 0.097597 -1.089790
O 3.464457 1.018612 -0.152524
N 5.595331 -1.791585 -1.439278
C 6.177700 -1.308293 -2.688375
C 7.322083 -0.337850 -2.415871
C 6.656363 -2.517178 -3.485219
H 2.167342 -3.894790 0.842917
H 2.470991 -2.621008 2.064275
H 3.697885 -3.891638 1.772390
H 5.325316 -2.166393 1.174049
H 4.097363 -0.889797 1.445810
H 5.858206 -0.195822 -0.111173
H 4.381756 0.619603 -1.973426
H 3.119895 -0.510496 -1.434297
H 4.191428 1.591228 0.119817
H 4.877973 -2.486149 -1.641295
H 5.432753 -0.775878 -3.316930
H 8.069450 -0.803840 -1.752370
H 6.972495 0.590031 -1.937535
H 7.819408 -0.055605 -3.356257
H 7.433091 -3.064414 -2.926660
H 7.073433 -2.210670 -4.456630
H 5.824421 -3.213252 -3.680522