28
H17 C8 N1 O2
C 1.065811 0.380804 -0.089189
C 2.576544 0.194658 -0.016626
C 3.024505 -0.604811 1.204690
C 4.535118 -0.807113 1.248377
N 5.016371 -1.393975 2.490382
C 4.549407 -2.750359 2.698441
C 6.447823 -1.297550 2.612211
C 6.945940 -1.420178 4.039206
O 6.272633 -1.392185 5.037074
O 8.274986 -1.538802 4.052053
C 8.902605 -1.605485 5.326118
H 0.773753 0.965859 -0.975050
H 0.686770 0.909639 0.800520
H 0.546168 -0.589738 -0.143785
H 3.069794 1.182329 -0.006091
H 2.929485 -0.311970 -0.932068
H 2.505371 -1.577991 1.201743
H 2.714135 -0.085696 2.128460
H 5.019567 0.176772 1.135561
H 4.849223 -1.412020 0.365667
H 3.452951 -2.782151 2.766885
H 4.943901 -3.144204 3.645438
H 4.862238 -3.438171 1.881191
H 6.784197 -0.306442 2.264830
H 7.000904 -2.038628 1.994482
H 9.978678 -1.690982 5.135462
H 8.553964 -2.482700 5.890592
H 8.699528 -0.697969 5.913463