33
H21 C10 N1 O1
C 1.179640 -0.442132 -0.318644
C 2.166519 0.441979 -0.474213
C 2.935615 1.087514 0.640905
C 4.425427 0.734589 0.578674
N 5.225440 1.448375 1.560787
C 4.852109 1.109308 2.930228
C 4.116330 2.236947 3.650623
O 3.800948 1.905201 4.980381
C 6.682513 1.449562 1.347399
C 7.067230 1.579696 -0.124031
C 7.322226 2.586744 2.162914
C 8.842663 2.527092 2.260332
H 0.662883 -0.880098 -1.178049
H 0.847704 -0.759236 0.676729
H 2.467833 0.726529 -1.491449
H 2.497794 0.792116 1.607566
H 2.847895 2.185466 0.563382
H 4.773728 0.995199 -0.428641
H 4.534880 -0.370233 0.675266
H 5.741153 0.845426 3.527460
H 4.213275 0.205105 2.944319
H 3.215832 2.522094 3.074477
H 4.762660 3.127869 3.686296
H 3.177529 1.169601 4.960408
H 7.113949 0.490978 1.718516
H 6.584936 2.460137 -0.579800
H 6.804328 0.691000 -0.714273
H 8.154845 1.707375 -0.213923
H 6.917385 2.571249 3.185689
H 7.001264 3.546865 1.721757
H 9.176401 1.559865 2.670929
H 9.219315 3.317058 2.928056
H 9.335800 2.663510 1.285848