24
H12 C6 N1 O2 F3
C 2.942487 -0.225348 -1.432252
C 2.540025 0.136885 -0.009346
O 1.136504 0.111228 0.152075
C 3.088691 1.490173 0.446770
N 4.537629 1.533564 0.442028
C 5.095492 2.717461 1.060693
C 6.602193 2.581735 1.135351
O 7.111894 3.749749 1.795286
C 8.420888 3.952762 1.752562
F 9.127414 2.923837 2.241830
F 8.876707 4.165494 0.508606
F 8.706346 5.026554 2.476667
H 4.033741 -0.331733 -1.529723
H 2.606980 0.550765 -2.141683
H 2.482204 -1.181570 -1.722598
H 2.933535 -0.631226 0.676997
H 0.760487 0.738598 -0.478200
H 2.734740 1.661971 1.476151
H 2.628959 2.286706 -0.182121
H 4.875642 1.473801 -0.517630
H 4.697879 2.808234 2.084790
H 4.841399 3.659568 0.531829
H 7.038356 2.509468 0.126222
H 6.879036 1.684187 1.708126