31
H19 C10 N1 O1
C 0.900204 -0.556075 0.382241
C 2.381252 -0.338818 0.217445
C 2.821280 -0.078707 -1.198474
C 3.211649 -0.376874 1.272708
C 4.698696 -0.154480 1.269426
C 5.061204 1.286245 1.639393
N 6.481856 1.498933 1.798228
C 7.291756 1.355876 0.599129
C 8.652941 1.852403 1.070776
C 8.309922 3.036097 1.997953
O 8.530784 4.298383 1.411861
C 6.823067 2.798713 2.352611
H 0.560832 -1.414594 -0.222368
H 0.333339 0.320538 0.024774
H 0.622750 -0.741832 1.430229
H 2.307280 0.811561 -1.598464
H 2.538795 -0.921186 -1.852451
H 3.902563 0.084583 -1.298163
H 2.764316 -0.550608 2.260189
H 5.129552 -0.405531 0.288549
H 5.175762 -0.823939 2.004315
H 4.569943 1.542891 2.593230
H 4.631862 1.975056 0.873411
H 6.906838 1.989413 -0.234971
H 7.311526 0.316159 0.241019
H 9.322180 2.167410 0.257658
H 9.156213 1.057275 1.641135
H 8.940471 3.023556 2.898006
H 8.002924 4.344906 0.604627
H 6.232510 3.616425 1.880405
H 6.618812 2.835493 3.434692