21
H12 C6 N1 O1 F1
O 3.020153 -0.282346 -3.245516
C 2.515804 -0.025152 -1.960669
C 2.771095 -1.206793 -1.047542
C 2.434832 -2.618872 -1.564456
C 3.782409 -3.042797 -0.960325
N 4.170149 -1.631603 -0.866783
C 4.898277 -1.215584 0.304115
C 5.341270 0.230473 0.205296
F 6.142926 0.539144 1.294060
H 2.771113 0.453364 -3.814369
H 1.421693 0.151441 -1.979436
H 2.977382 0.879059 -1.518214
H 2.278072 -0.999373 -0.074500
H 2.425692 -2.657427 -2.661403
H 1.532153 -3.095731 -1.161407
H 4.450398 -3.672417 -1.571664
H 3.661281 -3.519555 0.032729
H 5.801026 -1.842557 0.392664
H 4.309955 -1.353440 1.239599
H 4.483171 0.921110 0.215020
H 5.919338 0.392635 -0.718349