23
H14 C7 O2
C 1.027534 -0.133319 -0.132114
O 2.426423 -0.092736 -0.055124
C 2.916240 0.566095 1.091060
C 4.439340 0.650591 1.034467
C 4.898591 1.311243 -0.271424
O 4.708554 0.482136 -1.387987
C 4.935496 1.324899 2.305326
C 6.350782 1.792180 2.493579
C 5.235650 2.798823 2.394643
H 0.754181 -0.672501 -1.049448
H 0.590659 0.882156 -0.172586
H 0.590448 -0.663998 0.734098
H 2.594698 0.025214 2.002831
H 2.491188 1.589307 1.150751
H 4.832731 -0.381802 1.018015
H 5.974446 1.543644 -0.222972
H 4.368606 2.278983 -0.392199
H 3.802030 0.149009 -1.306182
H 4.479303 0.898352 3.205546
H 7.044060 1.715518 1.651164
H 6.813619 1.624969 3.469882
H 5.177071 3.397400 1.481598
H 4.933271 3.331926 3.300027