29
H18 C8 N1 O1 F1
C 1.130624 -0.129812 2.960950
C 2.573593 -0.044096 2.476319
C 2.821712 0.989991 1.364030
C 2.063773 0.581068 0.104015
N 4.271243 1.144388 1.151728
C 4.739840 1.604740 -0.147452
C 5.131410 0.471083 -1.092868
O 5.702927 0.952715 -2.284477
C 4.952023 1.813366 2.248130
C 6.266892 1.123812 2.555516
F 6.922143 1.792904 3.579700
H 1.050568 -0.810791 3.822074
H 0.447495 -0.506147 2.184278
H 0.759448 0.857008 3.283531
H 2.912000 -1.026546 2.103397
H 3.213808 0.188636 3.340750
H 2.394822 1.962462 1.699623
H 2.354466 -0.428402 -0.227376
H 2.211541 1.279567 -0.730602
H 0.985340 0.566012 0.314704
H 5.644539 2.215468 -0.002897
H 4.011275 2.273564 -0.647114
H 4.266884 -0.186363 -1.295812
H 5.893069 -0.149718 -0.594401
H 5.018113 1.430805 -2.766663
H 4.334691 1.790920 3.156754
H 5.144057 2.883195 2.029872
H 6.930931 1.115477 1.675675
H 6.088111 0.084167 2.873596