21
H12 C7 N2
C 1.098528 -0.251393 0.432869
C 2.509150 -0.144614 -0.149565
C 2.437207 0.427655 -1.570825
C 3.386832 0.749677 0.726727
N 3.083085 -1.505023 -0.055628
C 2.900416 -2.505036 -1.067456
C 4.242749 -1.879605 -0.831448
C 5.290914 -2.579556 -0.114204
N 6.126193 -3.139353 0.457328
H 0.611654 0.735271 0.451196
H 1.130818 -0.644411 1.460295
H 0.476170 -0.926995 -0.175382
H 2.011931 1.441389 -1.530516
H 1.789022 -0.172454 -2.227128
H 3.430358 0.511228 -2.038174
H 2.972690 1.767781 0.778459
H 4.407543 0.818850 0.317860
H 3.452212 0.346687 1.748808
H 2.423878 -2.233733 -2.015910
H 2.701638 -3.522636 -0.717063
H 4.621583 -1.207628 -1.609892