26
H15 C8 N1 O2
C 1.751019 -0.352058 -0.833115
C 2.976147 -0.236261 0.062760
C 2.659201 -0.470223 1.538471
O 2.147606 -1.765794 1.690290
C 1.543390 -2.004410 2.932206
C 3.908260 -0.191855 2.384074
O 4.163679 0.944157 2.766325
N 4.722987 -1.230543 2.639897
C 6.037326 -1.195691 3.267103
C 6.242263 -2.665393 2.833192
C 4.833946 -2.623218 2.198760
H 2.015682 -0.175647 -1.886659
H 0.982717 0.385273 -0.549721
H 1.302169 -1.352976 -0.756318
H 3.423584 0.765972 -0.026374
H 3.748562 -0.959383 -0.249504
H 1.912667 0.279073 1.868857
H 1.161375 -3.034697 2.926797
H 0.697364 -1.314552 3.111716
H 2.255916 -1.900103 3.772420
H 6.003305 -1.017170 4.353742
H 6.718151 -0.460675 2.808697
H 6.348849 -3.377677 3.661144
H 7.059484 -2.815484 2.116296
H 4.092255 -3.293752 2.656704
H 4.798106 -2.748211 1.106299