30
H19 C9 N1 O1
C 0.981143 0.372358 -0.925207
C 2.209640 -0.032588 -0.141824
O 2.832975 1.116052 0.369729
C 3.986307 0.847457 1.112821
C 4.565658 2.156363 1.615290
N 5.769711 1.920479 2.385294
C 6.311308 3.113224 3.009301
C 7.574719 2.809603 3.843000
C 6.731799 2.871392 5.142186
C 6.409722 1.516491 5.751958
C 5.578517 3.498286 4.317702
H 0.478432 -0.516779 -1.333875
H 1.253929 1.032200 -1.763030
H 0.267894 0.908400 -0.280491
H 2.912500 -0.593202 -0.791852
H 1.930091 -0.717431 0.684851
H 4.738722 0.316091 0.491803
H 3.762809 0.187979 1.976087
H 3.816782 2.644572 2.260897
H 4.726476 2.834599 0.750212
H 6.483756 1.517128 1.779153
H 6.420756 3.947405 2.285530
H 8.322582 3.612891 3.777272
H 8.067204 1.848323 3.623884
H 7.146354 3.538317 5.914589
H 5.996931 0.840444 4.986898
H 5.666765 1.610690 6.560870
H 7.312285 1.044807 6.174054
H 5.498000 4.587068 4.450472
H 4.581802 3.049941 4.455738