18
H11 C5 N1 O1
C 2.939883 0.349824 1.409094
C 2.462873 0.058417 0.002504
C 2.963554 1.075697 -1.020074
N 2.524346 0.684945 -2.349614
C 3.006647 -0.644173 -2.686625
C 2.502482 -1.624019 -1.640241
O 2.906028 -1.242148 -0.346319
H 2.583703 1.335940 1.742265
H 4.040193 0.341069 1.454859
H 2.559374 -0.410834 2.106550
H 1.353028 0.075865 -0.026497
H 4.071503 1.132099 -0.933670
H 2.558333 2.069577 -0.774180
H 2.845901 1.361814 -3.037155
H 4.116657 -0.701648 -2.715441
H 2.630603 -0.939513 -3.678450
H 2.905616 -2.631075 -1.822326
H 1.396055 -1.678316 -1.695801