33
H21 C10 N1 O1
C 3.818212 0.970397 1.229188
C 4.147134 -0.515137 1.395645
N 4.793088 -1.189533 0.275224
C 6.246412 -1.159382 0.309602
C 6.941223 0.168284 0.056253
C 7.302594 1.079607 1.195219
C 8.378594 0.315285 0.471311
C 4.129373 -1.028274 -1.019834
C 2.672148 -1.487211 -0.936481
C 4.820841 -1.810984 -2.133076
O 5.938916 -1.116877 -2.617280
C 6.708319 -1.862651 -3.512370
H 3.399705 1.365766 2.168374
H 3.067813 1.139763 0.441243
H 4.709912 1.562270 0.979192
H 3.215455 -1.047816 1.654899
H 4.807507 -0.638561 2.268338
H 6.632686 -1.889187 -0.416973
H 6.561149 -1.529481 1.301562
H 6.663463 0.642499 -0.889294
H 7.040397 0.754770 2.207358
H 7.241665 2.160343 1.038611
H 8.842887 -0.528079 0.993432
H 9.057233 0.867992 -0.184099
H 4.133007 0.031922 -1.355300
H 2.620831 -2.547493 -0.639314
H 2.179325 -1.374101 -1.913398
H 2.090037 -0.903537 -0.210607
H 4.101268 -1.972079 -2.959548
H 5.106943 -2.815086 -1.757014
H 7.542314 -1.232678 -3.852918
H 6.123346 -2.179246 -4.398245
H 7.126822 -2.772916 -3.039271