33
H21 C10 N1 O1
C 0.165910 0.450626 0.805436
C 1.554457 0.138943 0.260104
C 2.557653 1.266070 0.489032
C 3.949354 0.943132 -0.047452
N 4.908984 2.012114 0.198751
C 6.296025 1.588023 0.309540
C 6.959927 1.335211 -1.045341
C 8.432754 1.006888 -0.925266
O 6.835306 2.490554 -1.856552
C 5.491263 2.890800 -2.061199
C 5.500236 4.118172 -2.947416
C 4.809154 3.143421 -0.713565
H -0.534807 -0.379413 0.625242
H -0.255356 1.352179 0.331248
H 0.196217 0.632270 1.892193
H 1.486111 -0.072943 -0.821442
H 1.934591 -0.786756 0.727066
H 2.640483 1.484517 1.567884
H 2.177241 2.187675 0.014812
H 3.868836 0.673511 -1.121967
H 4.318780 0.038093 0.461832
H 6.356875 0.684677 0.936123
H 6.867809 2.385679 0.819784
H 6.436673 0.491045 -1.542415
H 8.970245 1.826026 -0.421662
H 8.877626 0.863529 -1.921152
H 8.578204 0.084494 -0.343363
H 4.953537 2.071225 -2.582090
H 6.022227 4.949977 -2.448310
H 4.472825 4.438579 -3.176233
H 6.017062 3.905356 -3.894935
H 3.752062 3.403033 -0.874929
H 5.293191 4.020025 -0.244926