14
H8 C4 O2
C 0.134553 -1.487264 0.220152
C 1.299641 -0.614048 -0.229194
O 1.097004 0.724808 0.183447
C -0.112453 1.226762 -0.288952
O -1.211984 0.514563 0.181714
C -1.168987 -0.839071 -0.229841
H 0.141619 -1.566948 1.319117
H 0.227027 -2.501322 -0.197874
H 1.398922 -0.654038 -1.333430
H 2.251721 -0.947913 0.206517
H -0.111231 1.223263 -1.403600
H -0.206839 2.259414 0.074024
H -1.259261 -0.897370 -1.334015
H -2.045122 -1.339074 0.206215