27
H14 C8 N1 O1 F3
C 1.458753 -0.945541 -1.107856
C 2.294260 -0.024366 -0.215753
N 2.801841 -0.540728 1.051511
C 3.702820 -1.682621 0.938643
C 2.853103 -2.962640 1.147571
C 1.563609 -2.458768 1.825051
C 1.858397 -0.962354 2.084920
C 0.596125 -0.113493 2.254466
O -0.340403 -0.747541 3.078504
C 0.876716 1.271619 2.843081
F 1.741542 1.992235 2.125022
F -0.248670 1.987277 2.936329
F 1.380055 1.172851 4.084934
H 1.205756 -0.419743 -2.042123
H 0.513322 -1.243044 -0.629654
H 2.006931 -1.860120 -1.381274
H 1.722583 0.892802 -0.011482
H 3.176480 0.307234 -0.787617
H 4.465916 -1.616855 1.733690
H 4.232620 -1.663193 -0.024496
H 3.387774 -3.693682 1.771419
H 2.629133 -3.454503 0.190090
H 1.336363 -2.994051 2.757415
H 0.690890 -2.568817 1.164810
H 2.404886 -0.907572 3.046940
H 0.099861 0.054203 1.287036
H 0.101968 -1.013589 3.896072