36
H23 C11 N1 O1
C 1.085793 0.876989 -0.510502
C 2.560481 0.606059 -0.221056
C 3.313117 1.889196 0.124027
C 2.694651 -0.430185 0.887432
O 4.044922 -0.747190 1.086664
C 4.267507 -1.658446 2.124965
C 5.764414 -1.886769 2.248917
N 6.091197 -2.912093 3.210220
C 5.825561 -2.583993 4.601253
C 6.545918 -3.692818 5.353275
C 7.841150 -3.845539 4.549148
C 7.465197 -3.428665 3.107065
C 7.553360 -4.564784 2.096243
H 0.972335 1.599282 -1.333703
H 0.580433 1.299037 0.374606
H 0.551712 -0.043415 -0.795549
H 3.018350 0.167555 -1.125672
H 2.880095 2.366604 1.019831
H 3.259880 2.615402 -0.702405
H 4.372828 1.681677 0.331327
H 2.121285 -1.342824 0.623650
H 2.248938 -0.033309 1.825131
H 3.768087 -2.628063 1.922578
H 3.846175 -1.269889 3.073853
H 6.258929 -0.917261 2.488219
H 6.132718 -2.195759 1.257883
H 4.744756 -2.556809 4.811051
H 6.242387 -1.588602 4.880428
H 5.947722 -4.616646 5.307933
H 6.717958 -3.452193 6.412062
H 8.248613 -4.866583 4.590541
H 8.613769 -3.170415 4.946989
H 8.147389 -2.617272 2.778788
H 6.927292 -5.412263 2.418704
H 8.591462 -4.917294 1.989433
H 7.205741 -4.242161 1.101930