34
H21 C10 N1 O2
C 5.054350 -7.135166 -2.155413
C 4.492998 -5.807013 -1.661713
C 5.187884 -5.289008 -0.405318
C 4.634727 -3.958674 0.092622
C 5.325580 -3.424793 1.352753
C 4.677330 -2.120761 1.831280
N 6.777080 -3.340583 1.176009
C 7.245250 -2.348177 0.233840
C 7.533249 -3.341461 2.395084
C 8.905462 -3.975366 2.247559
O 9.299646 -4.615842 1.307181
O 9.637599 -3.747929 3.340430
C 10.933702 -4.330366 3.379381
H 4.539505 -7.480079 -3.065739
H 4.945342 -7.922710 -1.391729
H 6.127989 -7.049735 -2.390384
H 3.411509 -5.913681 -1.464611
H 4.581593 -5.050153 -2.461153
H 6.268448 -5.181705 -0.595877
H 5.099337 -6.042082 0.399199
H 3.560435 -4.066479 0.320860
H 4.691028 -3.206383 -0.714463
H 5.172944 -4.182580 2.140678
H 4.724389 -1.338266 1.057079
H 5.172937 -1.735381 2.736419
H 3.615976 -2.283400 2.074394
H 6.707088 -2.432698 -0.721205
H 8.311681 -2.513738 0.019274
H 7.134943 -1.303987 0.597192
H 7.010436 -3.938594 3.160756
H 7.680253 -2.335854 2.844560
H 11.372864 -4.041704 4.341347
H 11.559385 -3.953697 2.556927
H 10.875450 -5.426735 3.311330