26
H17 C8 N1
C 1.043927 -0.180714 -0.172051
C 2.561097 -0.136701 -0.240375
N 3.160493 -1.084949 0.680760
C 4.610576 -1.109102 0.637905
C 5.167164 -2.185837 1.557309
C 5.029903 -3.624031 0.992498
C 6.507181 -3.564413 0.551626
C 6.712361 -2.369231 1.509679
C 7.613560 -1.223359 1.087637
H 0.596467 0.563741 -0.847743
H 0.694191 0.023931 0.851879
H 0.664437 -1.172761 -0.467699
H 2.914374 0.874678 0.027660
H 2.889514 -0.303563 -1.290437
H 2.806447 -2.017488 0.467248
H 4.984788 -0.121421 0.961609
H 4.998827 -1.259563 -0.394974
H 4.742840 -2.029056 2.562350
H 4.275730 -3.780962 0.204488
H 4.861689 -4.366633 1.786577
H 6.611020 -3.259691 -0.502065
H 7.126577 -4.459357 0.716326
H 7.044701 -2.747325 2.490317
H 7.335366 -0.826119 0.098790
H 8.661504 -1.559043 1.025711
H 7.573666 -0.391869 1.809812