27
H17 C8 N1 O1
C 1.469443 0.964840 0.041436
O 2.644645 0.221803 -0.086391
C 3.331319 0.466619 -1.281136
C 4.574997 -0.418701 -1.360961
C 4.200528 -1.897622 -1.370336
N 5.388775 -0.087338 -2.521005
C 6.434145 0.896127 -2.388296
C 6.327113 2.195302 -1.537105
C 7.827335 2.032734 -1.214694
C 7.704678 0.540075 -1.586198
H 1.005250 0.709802 1.004938
H 0.745856 0.738773 -0.766484
H 1.664475 2.055350 0.025024
H 3.624163 1.533217 -1.351310
H 2.679759 0.255891 -2.157719
H 5.173092 -0.220956 -0.455671
H 3.635545 -2.144053 -2.285128
H 3.574329 -2.152511 -0.502879
H 5.106002 -2.522763 -1.351637
H 4.802240 0.097872 -3.331021
H 6.736784 1.179995 -3.408859
H 5.719652 2.035719 -0.633115
H 5.987149 3.115996 -2.036582
H 8.157025 2.278088 -0.194664
H 8.460596 2.578836 -1.930809
H 7.452610 -0.067457 -0.702130
H 8.533297 0.055213 -2.125298