23
H12 C6 N1 O1 F3
C 3.284359 -0.959965 0.805004
C 2.648586 0.128416 -0.050779
N 1.201990 0.151834 0.056270
C 0.676978 0.357836 1.393291
C -0.847358 0.494849 1.378145
C -1.542723 -0.740949 0.827604
O -1.312816 0.828018 2.668538
C 2.995185 -0.086576 -1.517134
F 2.622780 -1.288972 -1.969369
F 2.397455 0.825549 -2.301874
F 4.312835 0.022909 -1.731750
H 4.355272 -1.053890 0.577852
H 2.792904 -1.927282 0.623328
H 3.193721 -0.713832 1.871009
H 3.113958 1.102214 0.211702
H 0.844372 0.893481 -0.544729
H 1.095802 1.259585 1.886580
H 0.934990 -0.505543 2.030552
H -1.105123 1.361009 0.743307
H -1.311222 -1.621207 1.451819
H -1.207803 -0.957782 -0.196577
H -2.633517 -0.597154 0.821789
H -1.174455 0.058103 3.234580