27
H14 C8 N1 O1 F3
C -1.764466 0.003331 -0.484080
C -0.580659 -0.019133 0.469613
C 0.500633 1.053819 0.183792
C 1.413600 -0.029643 -0.428785
N 1.396174 0.003661 -1.880275
C 2.210326 -1.019787 -2.499935
C 1.932666 -1.052834 -3.988040
O 2.761379 -2.075190 -4.561545
C 2.780358 -2.178290 -5.882525
F 1.566195 -2.391692 -6.409737
F 3.266478 -1.083250 -6.486494
F 3.555485 -3.201757 -6.215750
C 0.476261 -1.110616 0.162037
H -2.386461 0.899544 -0.325573
H -2.405028 -0.882671 -0.343376
H -1.416860 0.009604 -1.529067
H -0.941603 -0.024749 1.510153
H 0.925696 1.490443 1.098881
H 0.212400 1.870554 -0.497599
H 2.447051 -0.050475 -0.026493
H 1.710138 0.922464 -2.191762
H 1.944037 -1.999226 -2.070641
H 3.298563 -0.881264 -2.333292
H 2.173113 -0.083416 -4.453034
H 0.874189 -1.285609 -4.177518
H 0.889976 -1.576381 1.068261
H 0.165847 -1.905507 -0.534657