37
H23 C12 N1 O1
C 5.659633 0.303913 6.328758
C 4.989664 0.554363 5.202430
C 5.575188 1.158089 3.959376
C 5.492333 0.210489 2.759328
C 5.905339 0.827303 1.417539
N 5.720718 -0.160809 0.367436
C 5.491831 0.317482 -0.982685
C 4.042404 0.134335 -1.439055
C 3.046859 0.890549 -0.569861
O 4.009957 0.552001 -2.787300
C 2.870524 0.182329 -3.505129
C 7.304537 1.447238 1.501534
C 8.526110 0.580966 1.643409
C 8.309106 1.378687 0.385997
H 5.170908 -0.148524 7.197073
H 6.724654 0.544531 6.426000
H 3.924443 0.291119 5.149553
H 6.620444 1.449162 4.150121
H 5.022855 2.084385 3.716403
H 4.459454 -0.161351 2.654247
H 6.122979 -0.676035 2.952564
H 5.201787 1.649814 1.203517
H 6.441456 -0.875435 0.400125
H 6.129105 -0.227951 -1.696745
H 5.752043 1.387203 -1.091262
H 3.806450 -0.949558 -1.384604
H 3.236766 1.975019 -0.621840
H 3.138911 0.565658 0.476855
H 2.008372 0.704108 -0.882229
H 3.044195 0.430380 -4.562606
H 1.959575 0.717206 -3.176760
H 2.670887 -0.905076 -3.432582
H 7.329107 2.373943 2.083750
H 8.391927 -0.504108 1.575186
H 9.309948 0.893071 2.338700
H 8.047011 0.822449 -0.517285
H 8.939919 2.254174 0.209456