35
H22 C10 N1 O1 F1
C 0.413625 3.352407 -0.191776
C 1.918332 3.146493 -0.066722
C 2.687191 3.535050 -1.327727
C 4.194246 3.344648 -1.192690
C 4.997491 3.579494 -2.473193
C 4.807720 4.987140 -3.032658
N 6.412011 3.340204 -2.183625
C 7.280841 2.994736 -3.304072
C 7.406103 1.481729 -3.510013
O 6.175433 0.833853 -3.715266
C 8.669855 3.614386 -3.129112
C 8.621998 5.123869 -3.102954
F 9.897032 5.640214 -2.899654
H -0.112215 3.063595 0.731550
H -0.003873 2.750676 -1.015692
H 0.171326 4.407903 -0.397571
H 2.128000 2.089720 0.175245
H 2.302283 3.734700 0.785284
H 2.460877 4.586941 -1.572553
H 2.317428 2.935876 -2.179746
H 4.394201 2.312206 -0.851334
H 4.587653 4.012892 -0.404998
H 4.623553 2.863734 -3.233692
H 5.037724 5.743127 -2.263641
H 3.776670 5.146764 -3.382797
H 5.473853 5.162615 -3.891397
H 6.520085 2.660745 -1.432455
H 6.828120 3.414289 -4.218938
H 8.022918 1.283611 -4.400740
H 7.945197 1.049015 -2.642183
H 5.673296 0.885791 -2.893614
H 9.332305 3.288912 -3.947901
H 9.113317 3.254876 -2.184421
H 7.974789 5.478343 -2.287123
H 8.243756 5.527177 -4.056812