38
H25 C11 N1 O1
C 1.047360 -0.667616 0.942146
C 2.280801 -0.124081 0.229935
C 3.084557 0.842617 1.095310
C 4.415235 1.314081 0.498303
C 4.233344 1.999858 -0.854485
N 5.073069 2.214134 1.456671
C 6.480376 1.969721 1.747819
C 7.355142 2.270566 0.532933
O 7.290544 1.222877 -0.397816
C 7.988321 1.491558 -1.576561
C 6.953586 2.818299 2.955068
C 5.919671 2.903520 4.080711
C 8.268223 2.277668 3.524004
H 0.477434 -1.352813 0.295569
H 0.369826 0.148442 1.242507
H 1.323483 -1.220956 1.854620
H 1.969194 0.377065 -0.701229
H 2.931091 -0.962615 -0.075915
H 3.300362 0.356717 2.064191
H 2.466170 1.730856 1.325748
H 5.046821 0.420160 0.338905
H 3.539319 2.852311 -0.763967
H 3.834898 1.307632 -1.612624
H 5.194725 2.377995 -1.228015
H 4.560174 2.165166 2.330552
H 6.656814 0.899785 2.004489
H 8.407043 2.423915 0.839882
H 7.007593 3.221730 0.079504
H 7.892417 0.618642 -2.237985
H 9.065064 1.672445 -1.387803
H 7.584699 2.377789 -2.105136
H 7.128602 3.845754 2.585987
H 5.617878 1.899174 4.424491
H 5.015823 3.454684 3.781842
H 6.346068 3.433418 4.946365
H 8.113768 1.283886 3.976645
H 8.654785 2.944943 4.309878
H 9.055928 2.177214 2.763077