29
H17 C9 N1 O2
C 2.092398 0.053312 1.870814
O 2.927437 -1.026070 2.269275
C 4.211287 -0.742736 2.499372
O 4.672141 0.366153 2.408986
C 4.969943 -2.008599 2.841944
N 6.292594 -1.766113 3.353887
C 6.269052 -1.229921 4.698457
C 7.176117 -2.917950 3.246150
C 7.466598 -3.320593 1.818300
C 8.201626 -4.603043 1.533531
C 6.772206 -4.454358 1.090550
C 5.684143 -5.299224 1.709450
H 1.092412 -0.369758 1.720573
H 2.450796 0.503725 0.933498
H 2.054578 0.829487 2.649185
H 5.033038 -2.571296 1.897828
H 4.334014 -2.618913 3.519739
H 5.653216 -0.320017 4.736526
H 7.287446 -0.957236 5.014808
H 5.863037 -1.951136 5.442330
H 6.793767 -3.788933 3.823326
H 8.128644 -2.635620 3.723942
H 7.741319 -2.464913 1.191746
H 8.387272 -5.266604 2.385304
H 8.998518 -4.595063 0.785082
H 6.633038 -4.274945 0.018949
H 5.845151 -5.455885 2.786439
H 5.653669 -6.292870 1.234417
H 4.690703 -4.840763 1.580290