27
H16 C8 N1 O1 F1
C 1.759621 -3.181972 -0.317281
C 2.505896 -2.117267 -0.608763
C 3.051918 -1.142057 0.399027
C 2.428645 0.247327 0.202819
O 1.031574 0.249834 0.278087
N 4.493745 -1.016809 0.256631
C 5.252792 -2.180859 0.677271
C 6.745902 -1.964069 0.475068
C 7.581350 -3.174072 0.878558
C 9.059365 -2.942295 0.662435
F 9.782015 -4.065372 1.045250
H 1.375924 -3.845028 -1.098495
H 1.500567 -3.429118 0.718520
H 2.759834 -1.893184 -1.653490
H 2.762990 -1.497415 1.415156
H 2.881389 0.937552 0.943299
H 2.703119 0.621599 -0.796708
H 0.778515 -0.097643 1.141848
H 4.809405 -0.208130 0.791626
H 4.927949 -3.049115 0.079305
H 5.058445 -2.450701 1.738762
H 7.065774 -1.083334 1.060556
H 6.924899 -1.715835 -0.584777
H 7.272368 -4.057504 0.294889
H 7.412709 -3.413977 1.941863
H 9.420963 -2.088853 1.259477
H 9.280827 -2.744183 -0.399213