36
H23 C10 N1 O2
C 3.957057 6.667482 2.978411
C 3.720087 5.177426 2.877766
O 4.317715 4.691160 1.704638
C 4.150923 3.312736 1.516269
C 4.882608 2.836154 0.266220
C 4.482784 1.396156 -0.037467
N 6.331624 2.909244 0.424480
C 6.934107 4.211597 0.186944
C 8.443147 4.160561 0.380356
C 9.116211 5.510588 0.161159
C 10.617659 5.459034 0.365093
O 11.163876 6.730248 0.142121
C 12.548129 6.774439 0.312179
H 3.482925 7.069055 3.886318
H 3.532505 7.188024 2.106398
H 5.034328 6.889726 3.024147
H 2.632094 4.960599 2.869921
H 4.138828 4.659724 3.764738
H 3.071622 3.073223 1.421708
H 4.538326 2.749890 2.390687
H 4.538843 3.479666 -0.573168
H 4.789735 0.727495 0.783225
H 4.968814 1.045274 -0.961160
H 3.395332 1.302731 -0.172177
H 6.757495 2.242791 -0.217884
H 6.493701 4.932964 0.889445
H 6.708701 4.597024 -0.832928
H 8.873936 3.416511 -0.314562
H 8.655582 3.792480 1.398872
H 8.692009 6.258562 0.852516
H 8.912761 5.873637 -0.860697
H 11.070342 4.716654 -0.325928
H 10.850057 5.112752 1.394367
H 12.885301 7.802925 0.117856
H 13.075923 6.096318 -0.387797
H 12.850614 6.496929 1.341662