31
H21 C9 N1
C 0.925502 -0.099199 0.250173
C 2.413573 -0.175350 -0.072218
C 2.947871 1.114964 -0.693226
C 4.469888 1.163949 -0.883946
C 4.965871 -0.047030 -1.681499
C 4.945724 2.480098 -1.540621
C 4.260942 3.728779 -0.986606
N 6.392564 2.615685 -1.370737
C 7.069575 3.356779 -2.420207
C 8.558446 3.471337 -2.138902
H 0.557107 -1.042097 0.683517
H 0.332369 0.104930 -0.656448
H 0.712696 0.706183 0.972157
H 2.591305 -1.025891 -0.750388
H 2.980789 -0.395311 0.849840
H 2.635811 1.953369 -0.050311
H 2.455264 1.277790 -1.670696
H 4.933819 1.134643 0.121065
H 4.409704 -0.138602 -2.629831
H 4.836062 -0.985587 -1.123389
H 6.034687 0.026285 -1.934768
H 4.689891 2.406822 -2.622336
H 4.356110 3.768699 0.110883
H 3.194008 3.769907 -1.249290
H 4.730867 4.635861 -1.396118
H 6.821537 1.695495 -1.307137
H 6.632974 4.367781 -2.481955
H 6.915033 2.898730 -3.422262
H 8.734664 3.970056 -1.173102
H 9.066487 4.048090 -2.926585
H 9.029487 2.475325 -2.095966