20
H13 C5 N1 O1
C 0.939644 -0.039200 -0.073985
C 2.462214 -0.071315 -0.077608
C 3.045123 -0.979019 -1.157758
O 2.598934 -0.612990 -2.453706
C 4.568806 -1.027101 -1.118434
N 5.076888 -1.943911 -2.115846
C 6.515113 -1.911072 -2.261245
H 0.556076 0.645034 0.698009
H 0.522399 -1.039642 0.124970
H 0.552414 0.294489 -1.048213
H 2.836928 -0.410392 0.902253
H 2.859939 0.949804 -0.224079
H 2.669761 -2.006070 -1.008580
H 2.853687 0.308256 -2.597154
H 4.897792 -1.351742 -0.115717
H 4.955907 0.011122 -1.252557
H 4.634377 -1.710129 -3.003344
H 7.000377 -2.264228 -1.335799
H 6.925545 -0.900989 -2.478279
H 6.828527 -2.583316 -3.074538