27
H17 C8 N1 O1
C 1.287976 -0.411516 -0.337467
C 2.253700 0.396597 0.103220
C 3.119786 1.263004 -0.762233
C 4.603728 0.914874 -0.650590
N 5.409924 1.783325 -1.485597
C 6.831412 1.498348 -1.430724
C 7.624940 2.449416 -2.316230
C 9.121934 2.162357 -2.318690
C 9.911288 3.121085 -3.199583
O 11.286745 2.826981 -3.242083
H 0.694417 -1.021492 0.350352
H 1.051337 -0.490790 -1.404770
H 2.456774 0.440425 1.181757
H 2.987879 2.318194 -0.459461
H 2.808812 1.189178 -1.816811
H 4.756127 -0.128047 -0.980121
H 4.908342 0.945394 0.419556
H 5.256449 2.750770 -1.200549
H 6.990936 0.460639 -1.774492
H 7.234272 1.540760 -0.393796
H 7.449597 3.486503 -1.976636
H 7.226932 2.387978 -3.343659
H 9.310754 1.131906 -2.665573
H 9.513254 2.224352 -1.286673
H 9.731065 4.163048 -2.866274
H 9.545893 3.055960 -4.237672
H 11.630816 2.909568 -2.344979