39
H25 C12 N1 O1
C 13.021716 -0.750391 3.580429
C 12.295708 -2.055182 3.342635
O 10.931540 -1.795826 3.139132
C 10.157254 -2.943857 2.915266
C 8.696272 -2.534679 2.790373
C 8.470913 -1.652590 1.557283
N 8.286849 -1.942808 4.054595
C 6.881869 -1.577093 4.211236
C 6.643657 -0.061440 4.105720
C 7.259796 0.699916 5.281564
C 6.761812 0.156094 6.620965
C 6.967545 -1.355827 6.723839
C 6.317594 -2.100356 5.552681
C 6.457426 -3.611863 5.679833
H 14.094551 -0.933973 3.740378
H 12.621645 -0.239001 4.469386
H 12.910060 -0.079414 2.714981
H 12.430518 -2.734790 4.208576
H 12.720522 -2.577201 2.461200
H 10.267965 -3.653105 3.759460
H 10.488648 -3.465530 1.994675
H 8.123587 -3.469728 2.656375
H 9.054787 -0.722775 1.636951
H 7.408766 -1.387377 1.445379
H 8.782032 -2.175168 0.638533
H 8.904002 -1.162848 4.266829
H 6.315121 -2.072401 3.403906
H 5.555710 0.124853 4.087820
H 7.048045 0.312480 3.151829
H 7.033116 1.774611 5.193810
H 8.361277 0.618478 5.242212
H 5.684305 0.379301 6.721912
H 7.268126 0.670137 7.454155
H 6.564963 -1.731760 7.679216
H 8.049294 -1.583338 6.725903
H 5.239476 -1.852745 5.557642
H 7.518444 -3.905444 5.659472
H 5.949608 -4.131798 4.850880
H 6.019379 -3.976262 6.622962