37
H23 C12 N1 O1
C 2.469431 -0.993654 -2.812311
O 2.568668 -1.895602 -1.740351
C 2.839183 -1.393619 -0.447135
C 2.254031 -0.011061 -0.152553
N 0.832755 0.086010 -0.378653
C -0.049413 -0.847230 0.320730
C 0.163243 -0.932278 1.836759
C -1.422236 -0.280079 -0.045113
C -1.209588 1.234665 0.052082
C 0.282667 1.443221 -0.295222
C 0.497112 2.221930 -1.588916
C 4.325797 -1.436232 -0.112043
C 5.161669 -2.607277 -0.536796
C 5.406584 -1.251682 -1.142570
H 2.495268 -1.591198 -3.735609
H 3.301524 -0.270302 -2.858180
H 1.523830 -0.428648 -2.780865
H 2.351169 -2.113843 0.231940
H 2.534808 0.241594 0.894065
H 2.761193 0.737345 -0.782583
H 0.082434 -1.855156 -0.107317
H 0.041507 0.050024 2.321184
H 1.167011 -1.307591 2.087956
H -0.567613 -1.623719 2.284074
H -2.224632 -0.647949 0.611047
H -1.671516 -0.567691 -1.078305
H -1.418681 1.589705 1.072082
H -1.870627 1.795400 -0.625231
H 0.773242 2.005997 0.527172
H -0.049033 1.745608 -2.419118
H 1.562920 2.269791 -1.862362
H 0.134084 3.256729 -1.484448
H 4.545954 -1.031908 0.881468
H 4.674672 -3.349106 -1.175853
H 5.895176 -3.009154 0.167431
H 5.119247 -1.113617 -2.186947
H 6.305390 -0.704301 -0.845663