33
H21 C10 N1 O1
C 1.270559 -0.521569 -0.115502
C 2.334078 0.222785 0.207259
C 2.894155 0.290448 1.599743
C 3.054860 1.059804 -0.827368
N 4.420059 0.608688 -1.045539
C 4.505299 -0.691807 -1.694302
C 5.008069 -1.790116 -0.761265
O 5.141244 -3.028400 -1.414178
C 5.303183 1.617494 -1.606440
C 6.779544 1.329058 -1.357295
C 7.699782 2.407648 -1.922654
C 9.176300 2.129465 -1.667804
H 0.744517 -1.125028 0.631514
H 0.884550 -0.546187 -1.139981
H 2.412717 -0.429642 2.276745
H 2.761304 1.303199 2.017086
H 3.977956 0.096926 1.583175
H 3.098736 2.097646 -0.456940
H 2.464275 1.075569 -1.768507
H 5.177412 -0.648557 -2.569007
H 3.514769 -0.992335 -2.086607
H 4.338527 -1.860563 0.117423
H 6.005845 -1.515466 -0.383701
H 4.260403 -3.315540 -1.682312
H 5.053661 2.583420 -1.138214
H 5.135325 1.749067 -2.699801
H 7.052770 0.355215 -1.799824
H 6.938259 1.231125 -0.269001
H 7.427632 3.384198 -1.485056
H 7.524811 2.501939 -3.008736
H 9.389005 2.065034 -0.588205
H 9.814889 2.922435 -2.087080
H 9.486474 1.174967 -2.123607