22
H15 C6 N1
C 0.865403 -0.051759 0.187087
C 2.385423 -0.059763 0.078497
C 2.903503 -0.969222 -1.033169
C 4.423768 -0.946709 -1.148987
N 4.967482 -1.927328 -2.074572
C 4.601048 -1.673283 -3.451505
C 6.401621 -2.052644 -1.930829
H 0.522454 0.607070 0.999933
H 0.475258 -1.062659 0.389177
H 0.400427 0.301621 -0.747751
H 2.822290 -0.376889 1.041592
H 2.747327 0.968877 -0.095415
H 2.440950 -0.663289 -1.986824
H 2.581543 -2.009144 -0.848137
H 4.850853 -1.157357 -0.153999
H 4.756782 0.085229 -1.415256
H 3.509672 -1.695829 -3.583276
H 5.026860 -2.452099 -4.102736
H 4.966981 -0.687566 -3.820798
H 6.661181 -2.319680 -0.894545
H 6.948763 -1.115896 -2.184561
H 6.782551 -2.847921 -2.590525