32
H19 C10 N1 O2
C 2.410586 4.331085 0.119429
C 2.039474 3.012423 0.790468
C 0.629961 2.493589 0.428974
N 0.643470 1.357995 -0.496294
C 0.998348 1.570799 -1.894971
C 2.495261 1.547473 -2.179280
C 0.332649 2.804803 -2.510734
O 0.891138 3.669985 -3.140112
O -0.980136 2.810372 -2.273484
C -1.717622 3.929135 -2.748801
C -0.127311 2.054626 1.665837
C -0.887502 3.064669 2.472793
C -1.630404 2.041703 1.652286
H 3.443727 4.626166 0.360694
H 1.745523 5.141424 0.459916
H 2.321933 4.277817 -0.976454
H 2.093260 3.153541 1.882106
H 2.775682 2.229455 0.550939
H 0.059421 3.347545 0.002664
H -0.281367 0.936673 -0.467068
H 0.551846 0.722887 -2.441869
H 3.019465 2.417351 -1.762857
H 2.678791 1.537047 -3.263308
H 2.929809 0.636435 -1.743874
H -2.757840 3.763735 -2.445789
H -1.655260 4.005094 -3.844138
H -1.342719 4.861696 -2.301956
H 0.364733 1.249478 2.223535
H -0.890028 4.099653 2.117384
H -0.894009 2.959356 3.560765
H -2.126891 2.387855 0.740286
H -2.149976 1.234387 2.174923