30
H19 C8 N1 O2
C 7.502571 -3.949503 1.341850
C 7.123811 -2.591796 0.763218
C 7.032806 -2.519272 -0.763145
C 5.959197 -3.444811 -1.353486
O 6.294239 -4.810355 -1.336638
N 6.729100 -1.148288 -1.156787
C 7.213623 -0.755243 -2.466227
C 6.651925 0.606236 -2.886945
C 5.151260 0.566467 -3.105705
O 7.257602 1.035691 -4.089256
C 8.474212 1.706435 -3.931958
H 7.600161 -3.887069 2.436816
H 8.468743 -4.296637 0.940557
H 6.754923 -4.718042 1.104185
H 7.868381 -1.843910 1.088755
H 6.154800 -2.260933 1.177701
H 8.014669 -2.843540 -1.179856
H 5.727667 -3.108640 -2.382125
H 5.031502 -3.333097 -0.768222
H 7.122740 -4.917156 -1.818813
H 7.105999 -0.506842 -0.461870
H 6.893493 -1.498511 -3.215128
H 8.322213 -0.722404 -2.512292
H 6.877872 1.336613 -2.082144
H 4.910160 -0.098197 -3.950836
H 4.762692 1.570526 -3.331858
H 4.648291 0.181778 -2.207782
H 8.845229 1.969673 -4.933227
H 9.246553 1.090547 -3.433917
H 8.357336 2.640899 -3.348927