33
H21 C10 N1 O1
C 3.807671 -2.276142 3.063308
O 3.676130 -2.125454 1.681399
C 4.670160 -1.313472 1.113821
C 4.505592 -1.213441 -0.407653
C 3.103405 -0.745089 -0.788778
N 4.882417 -2.399692 -1.155614
C 6.297055 -2.716849 -1.227614
C 6.333178 -4.169278 -1.696833
C 7.658889 -4.874386 -1.460691
C 5.131802 -4.760958 -0.943413
C 4.629156 -6.099462 -1.459316
C 4.098950 -3.629299 -1.010694
H 2.986703 -2.915397 3.418406
H 3.748976 -1.304452 3.592078
H 4.768409 -2.754050 3.338699
H 5.675816 -1.712212 1.357519
H 4.622548 -0.292910 1.548755
H 5.216055 -0.424932 -0.714089
H 2.341834 -1.480263 -0.490004
H 3.034953 -0.598006 -1.877103
H 2.859984 0.206664 -0.291710
H 6.811482 -2.642025 -0.243309
H 6.828612 -2.034601 -1.915411
H 6.099860 -4.189745 -2.777789
H 7.902741 -4.906018 -0.385590
H 8.483933 -4.359191 -1.978016
H 7.634127 -5.911257 -1.830545
H 5.440156 -4.877262 0.112706
H 4.347304 -6.029642 -2.523254
H 3.742071 -6.435131 -0.898622
H 5.396380 -6.883649 -1.363767
H 3.467073 -3.613707 -0.110742
H 3.429569 -3.778362 -1.882363