21
H13 C6 N1 O1
C 1.066218 -0.051763 -0.437039
C 2.485383 -0.075177 0.133383
N 2.914403 1.096315 0.865891
C 2.913409 2.430241 0.264135
C 2.590175 3.018780 1.652858
C 3.801794 3.557542 2.394178
O 3.554498 3.785417 3.760041
C 2.195938 1.580845 2.045780
H 0.858011 -0.994631 -0.966173
H 0.927320 0.769344 -1.157717
H 0.308188 0.057975 0.354308
H 3.203852 -0.235611 -0.689178
H 2.591462 -0.944052 0.805762
H 2.097225 2.605342 -0.463017
H 3.867167 2.734629 -0.204689
H 1.773582 3.756807 1.675876
H 4.163100 4.474260 1.886964
H 4.616638 2.817068 2.340254
H 2.868985 4.460735 3.826059
H 1.100606 1.422492 2.010732
H 2.571996 1.207834 3.014803