22
H13 C7 N1 O1
C 1.226712 0.361846 0.465598
C 2.236942 -0.312907 -0.081649
C 2.907326 0.050511 -1.385148
O 2.338139 1.188200 -1.990221
C 4.424388 0.197297 -1.164961
N 5.318176 0.230089 -2.309858
C 5.180122 -0.725957 -3.387354
C 4.916088 0.723490 -3.613237
C 5.884086 1.618994 -4.341158
H 0.784142 0.049937 1.415810
H 0.800021 1.242312 -0.024393
H 2.637385 -1.201625 0.420449
H 2.725987 -0.782803 -2.087106
H 2.602100 1.961918 -1.474708
H 4.760978 -0.631730 -0.521498
H 4.583296 1.124236 -0.583670
H 4.317799 -1.404145 -3.387522
H 6.111460 -1.179519 -3.747528
H 3.859691 0.992008 -3.721911
H 6.920358 1.281280 -4.188172
H 5.804720 2.656754 -3.979686
H 5.675844 1.623027 -5.422737