28
H17 C9 N1 O1
C 1.270863 0.520398 0.129834
C 2.472106 0.369668 0.095943
C 3.923103 0.198309 0.026600
C 4.492782 0.610037 -1.338397
N 5.940181 0.504356 -1.387158
C 6.389283 -0.871704 -1.482972
C 6.519704 1.350023 -2.415653
C 8.008303 1.595345 -2.221481
O 8.409258 2.558742 -3.153803
C 9.781979 2.848413 -3.113841
C 10.099507 3.904141 -4.148955
H 0.202189 0.652858 0.167501
H 4.160225 -0.854218 0.248722
H 4.403909 0.805254 0.810578
H 4.215563 1.659125 -1.520024
H 4.003787 0.008559 -2.136194
H 5.958992 -1.478418 -0.673843
H 7.481712 -0.936909 -1.382074
H 6.106032 -1.344463 -2.449484
H 6.026291 2.333139 -2.379155
H 6.351664 0.943215 -3.438048
H 8.594231 0.664803 -2.357201
H 8.185375 1.941434 -1.182373
H 10.373439 1.930040 -3.307401
H 10.070066 3.202147 -2.102764
H 9.836163 3.551039 -5.157786
H 11.173425 4.142379 -4.134557
H 9.536438 4.828370 -3.947823