23
H14 C8 O1
C 0.988296 0.099326 -0.167643
O 2.331660 -0.283115 -0.132972
C 2.752750 -0.905427 1.061327
C 2.015148 -2.218623 1.300595
C 2.167526 -3.373483 0.350157
C 2.689900 -3.485562 1.754106
C 4.262687 -1.031895 1.009852
C 4.978489 -1.354530 -0.272732
C 5.096709 0.017844 0.335046
H 0.838416 0.711611 -1.068635
H 0.709144 0.706239 0.715975
H 0.299536 -0.763809 -0.222209
H 2.507171 -0.235348 1.912535
H 1.004246 -2.076938 1.695848
H 2.902686 -3.270430 -0.452194
H 1.270789 -3.936269 0.077088
H 3.773810 -3.482320 1.891347
H 2.148204 -4.118689 2.461789
H 4.685861 -1.458542 1.923023
H 4.368190 -1.442994 -1.174611
H 5.841112 -2.024835 -0.229053
H 4.565651 0.830963 -0.165471
H 6.043001 0.298128 0.805573