31
H19 C10 N1 O1
C 5.606319 -8.520383 0.582859
C 5.309101 -7.240242 0.806054
C 6.305629 -6.116737 0.799846
N 6.234954 -5.277224 1.985716
C 6.546996 -6.002156 3.215133
C 5.324345 -6.512056 3.927436
C 5.156095 -7.755651 4.376825
C 6.977040 -4.032647 1.838936
C 6.464413 -2.931871 2.763258
C 7.321007 -1.660678 2.781931
C 7.481783 -1.009347 1.413305
O 8.580182 -1.889859 3.390543
H 4.831554 -9.292743 0.565463
H 6.638369 -8.845141 0.408363
H 4.268498 -6.945489 0.990642
H 6.084966 -5.477349 -0.072235
H 7.326472 -6.531712 0.641236
H 7.069619 -5.317137 3.903122
H 7.252476 -6.836486 3.025568
H 4.539372 -5.762491 4.089628
H 5.915935 -8.528652 4.214010
H 4.253382 -8.051933 4.919444
H 6.870956 -3.701678 0.794816
H 8.066508 -4.192709 2.003301
H 6.413270 -3.304228 3.799098
H 5.433726 -2.674608 2.467549
H 6.814078 -0.941328 3.445933
H 8.052612 -1.656284 0.726510
H 8.025031 -0.057070 1.506983
H 6.502854 -0.807236 0.951928
H 9.114867 -2.407407 2.776776