30
H18 C9 N1 O1 F1
C 1.383305 0.329158 -0.682127
C 2.648146 -0.044507 0.083078
C 2.746196 0.506621 1.511491
C 1.658799 -0.042771 2.457897
O 0.369707 0.467995 2.210067
N 4.088800 0.313214 2.028622
C 4.585660 -1.049111 2.225144
C 5.584210 -0.940163 3.390168
C 5.871950 0.562401 3.515961
C 6.969342 1.031295 2.578209
F 8.159672 0.371383 2.858571
C 4.525778 1.166403 3.118060
H 1.425298 -0.058543 -1.712021
H 1.266409 1.423820 -0.743363
H 0.481050 -0.069228 -0.198776
H 3.531783 0.322381 -0.465165
H 2.743335 -1.144170 0.120179
H 2.593301 1.602344 1.460621
H 1.965793 0.155661 3.503073
H 1.582431 -1.136694 2.350505
H 0.423619 1.430825 2.233133
H 5.071466 -1.423378 1.306230
H 3.784116 -1.769445 2.470496
H 6.496607 -1.531716 3.230791
H 5.119534 -1.295845 4.321854
H 6.151694 0.838567 4.543811
H 7.149772 2.111738 2.696072
H 6.708437 0.827902 1.527163
H 4.606232 2.215441 2.782868
H 3.844359 1.158812 3.995646