39
H25 C13 N1
C 1.153918 -0.656723 -0.197108
C 2.400290 0.204859 -0.430386
C 2.035920 1.301030 -1.437403
C 3.059754 0.812899 0.844856
C 2.753134 0.020806 2.127232
N 1.448073 0.309765 2.672110
C 1.028907 -0.403989 3.883636
C 0.431367 0.901315 4.395764
C 0.123391 1.329178 5.789697
C -0.989859 1.150975 4.782818
C 1.226237 1.616330 3.308756
C 4.604537 0.987755 0.736308
C 5.156677 1.383224 -0.635675
C 5.117344 2.002526 1.764599
H 0.788150 -1.038303 -1.164405
H 0.343710 -0.079742 0.271690
H 1.350030 -1.529277 0.442228
H 3.150399 -0.459581 -0.896196
H 1.210076 1.916581 -1.041407
H 1.696782 0.867280 -2.392006
H 2.871440 1.977810 -1.657753
H 2.628271 1.822629 0.984596
H 3.534439 0.222294 2.890939
H 2.813874 -1.060837 1.920437
H 1.882890 -0.747312 4.503913
H 0.345285 -1.254799 3.719011
H 0.393794 2.348484 6.081945
H 0.221173 0.584333 6.585423
H -1.475366 2.049656 4.389970
H -1.648516 0.284052 4.893510
H 2.159025 2.074301 3.698697
H 0.694793 2.363160 2.694560
H 5.043198 0.001022 0.980096
H 4.838325 2.398435 -0.923102
H 4.861217 0.691454 -1.437229
H 6.257840 1.387757 -0.600745
H 4.742445 3.011983 1.524727
H 6.218013 2.047644 1.757600
H 4.805884 1.769057 2.792925