10
H5 C2 N1 O2
O 0.986450 0.219472 -0.048987
C 2.190191 0.375923 -0.024118
N 2.936419 0.510031 1.097294
C 4.350337 0.782832 1.104677
O 4.665889 2.107531 1.404512
H 2.809265 0.410461 -0.951503
H 2.437929 0.526636 1.984599
H 4.751217 0.468990 0.124439
H 4.827313 0.167854 1.880713
H 4.353899 2.662511 0.678264