32
H21 C9 N1 O1
C 2.833155 -0.383699 2.681213
C 2.384355 0.933815 2.059907
C 3.088358 1.302228 0.743449
C 2.742769 0.338184 -0.387050
N 4.537829 1.341910 0.902721
C 5.048122 2.416156 1.733616
C 6.570171 2.454325 1.711920
C 7.160139 3.543502 2.601622
C 8.684669 3.581759 2.580083
C 9.269636 4.664224 3.476588
O 10.674607 4.728569 3.422066
H 2.325792 -0.557634 3.642791
H 3.918436 -0.384102 2.864046
H 2.606608 -1.242628 2.029957
H 2.535224 1.748487 2.787622
H 1.298943 0.908803 1.865260
H 2.700952 2.305629 0.454380
H 3.135335 -0.670451 -0.183998
H 3.179388 0.681349 -1.338977
H 1.653229 0.265881 -0.524411
H 4.961842 1.417689 -0.020777
H 4.712273 2.261442 2.773382
H 4.650638 3.410600 1.428316
H 6.913474 2.605325 0.672173
H 6.952081 1.466829 2.023584
H 6.812482 3.393745 3.639494
H 6.766460 4.526453 2.286746
H 9.045851 3.745776 1.550169
H 9.082013 2.600956 2.900030
H 8.912367 4.516665 4.515813
H 8.899532 5.651805 3.155088
H 11.017281 3.880055 3.726376