33
H21 C11 N1
C 9.277858 0.513201 -1.907353
C 8.739713 -0.249574 -3.097521
C 8.773590 -1.757773 -3.150676
C 7.453252 -1.040695 -3.100454
C 6.476107 -1.180036 -1.942717
N 7.077436 -1.386047 -0.639096
C 6.256784 -2.087902 0.340179
C 4.936589 -1.381329 0.665433
C 7.062349 -2.334720 1.619941
C 8.339359 -3.120809 1.427102
C 9.654484 -2.425613 1.221088
C 9.378646 -3.144603 2.514970
H 10.317078 0.827462 -2.094586
H 9.280437 -0.098148 -0.995154
H 8.689581 1.424117 -1.707788
H 8.944331 0.247972 -4.052464
H 9.079198 -2.266846 -2.231356
H 9.075121 -2.255733 -4.076847
H 6.915657 -0.994473 -4.054600
H 5.786102 -0.311325 -1.967928
H 5.847645 -2.061460 -2.160080
H 7.378488 -0.497882 -0.242442
H 6.015827 -3.074345 -0.098566
H 5.129029 -0.382912 1.093912
H 4.346034 -1.956455 1.395898
H 4.315585 -1.250340 -0.233725
H 6.410827 -2.867903 2.333186
H 7.298396 -1.362202 2.090786
H 8.208235 -4.059588 0.876599
H 9.652604 -1.331481 1.237175
H 10.374210 -2.864385 0.524484
H 9.191035 -2.536949 3.405967
H 9.906807 -4.081804 2.711090