23
H15 C7 N1
C 0.968853 -0.172029 0.139116
C 2.481468 -0.109055 -0.045045
C 2.951201 0.860111 -1.128824
C 4.466970 0.792319 -1.329550
C 4.943379 1.800326 -2.375060
C 4.442387 3.204485 -2.040205
C 2.933030 3.191787 -1.827520
N 2.579285 2.231070 -0.793263
H 0.693708 -0.947199 0.870723
H 0.460835 -0.412598 -0.809171
H 0.556577 0.779886 0.510338
H 2.857669 -1.113123 -0.302735
H 2.962584 0.173191 0.907713
H 2.477169 0.548798 -2.090543
H 4.753038 -0.231306 -1.620808
H 4.955282 1.004411 -0.361617
H 4.553016 1.504941 -3.365538
H 6.042351 1.786071 -2.451756
H 4.703744 3.915149 -2.840431
H 4.928320 3.559038 -1.114664
H 2.440177 2.960473 -2.798899
H 2.580502 4.188942 -1.519964
H 1.577985 2.280522 -0.621108