36
H23 C11 N1 O1
C 2.949067 -3.063399 -0.621526
C 2.696592 -2.481471 0.764641
C 3.404606 -1.149916 1.035632
C 2.876840 0.004823 0.196546
N 3.527256 1.240253 0.588317
C 3.316432 2.376413 -0.302063
C 1.854207 2.812285 -0.281870
C 4.298135 3.475403 0.104084
C 4.331090 4.835660 -0.626950
C 4.660650 5.503321 0.726331
C 4.128376 4.239876 1.436864
O 4.797724 -1.213942 0.792705
C 5.529305 -1.989397 1.698139
H 2.483818 -4.056051 -0.720150
H 4.027917 -3.175411 -0.809452
H 2.537198 -2.425022 -1.418354
H 3.014000 -3.208723 1.529823
H 1.617161 -2.328507 0.928636
H 3.244621 -0.882997 2.100689
H 3.028394 -0.225631 -0.880348
H 1.788912 0.072876 0.357865
H 4.526412 1.042751 0.631299
H 3.562239 2.105073 -1.355645
H 1.515473 3.002399 0.748918
H 1.202502 2.036564 -0.711040
H 1.700387 3.725634 -0.875203
H 5.311995 3.038726 0.073395
H 3.334875 5.133763 -0.988166
H 5.051070 4.952436 -1.451320
H 4.170651 6.461910 0.953801
H 5.746039 5.622343 0.866895
H 3.067741 4.350933 1.710145
H 4.678327 3.866531 2.313732
H 6.597183 -1.818329 1.499474
H 5.331036 -3.071879 1.591325
H 5.318908 -1.704069 2.746981