27
H17 C8 N1 O1
C 0.992492 -0.068081 0.061455
C 2.510122 -0.037557 0.184271
C 3.092082 -1.304910 0.805062
O 2.724341 -2.467110 0.079561
C 4.607757 -1.235572 0.957009
N 5.109036 -2.428881 1.606867
C 6.548352 -2.515972 1.641212
C 7.295500 -1.595301 2.630955
C 8.225325 -2.782311 2.963233
C 7.160117 -3.728188 2.368122
H 0.611429 0.848809 -0.413252
H 0.516464 -0.157926 1.051345
H 0.665545 -0.926752 -0.543672
H 2.824043 0.825239 0.794611
H 2.965886 0.106905 -0.812602
H 2.658022 -1.448401 1.809443
H 3.029834 -2.348640 -0.829714
H 4.872873 -0.348658 1.557677
H 5.055860 -1.076218 -0.051746
H 4.730795 -3.236566 1.111859
H 7.003396 -2.412129 0.631832
H 6.637956 -1.347677 3.479291
H 7.747749 -0.670878 2.241638
H 8.504872 -2.929962 4.016555
H 9.143522 -2.766172 2.356598
H 6.464587 -4.090547 3.141157
H 7.496952 -4.579663 1.757982