36
H23 C11 N1 O1
C 1.168971 0.283407 0.171378
O 2.448334 0.189764 -0.381327
C 2.835570 -0.999796 -1.059596
C 4.145732 -0.538270 -1.733208
N 4.889544 -1.532192 -2.494407
C 4.632294 -1.401353 -3.917359
C 6.322371 -1.586998 -2.166127
C 6.558058 -2.013087 -0.717655
C 7.077384 -2.546718 -3.085899
C 3.039327 -2.190033 -0.100546
C 2.886732 -3.460837 -0.949068
C 2.119735 -3.034465 -2.226860
C 1.781086 -1.549068 -2.039842
H 1.171589 1.153727 0.844507
H 0.883375 -0.600361 0.770747
H 0.383850 0.449121 -0.589187
H 4.765669 -0.138265 -0.918642
H 3.889842 0.334239 -2.365462
H 3.558727 -1.257594 -4.092354
H 4.925512 -2.304050 -4.471194
H 5.158092 -0.531827 -4.371823
H 6.771935 -0.575079 -2.301938
H 6.161989 -3.026919 -0.545196
H 6.092918 -1.335256 0.010780
H 7.637623 -2.025909 -0.503794
H 6.614840 -3.547547 -3.063449
H 8.117236 -2.645598 -2.741094
H 7.112459 -2.204212 -4.129248
H 2.246565 -2.150828 0.663139
H 3.999250 -2.130355 0.430735
H 2.354709 -4.249310 -0.395188
H 3.872029 -3.864090 -1.220819
H 1.209592 -3.632625 -2.383858
H 2.752956 -3.182156 -3.112407
H 0.790392 -1.463904 -1.567956
H 1.735895 -0.978217 -2.980075