13
H8 C3 O2
O 0.955077 -0.067500 -0.016830
C 2.362231 -0.110524 -0.009974
C 2.894367 1.308700 0.039225
C 4.415030 1.375422 0.028835
O 4.905739 2.689901 0.130572
H 0.629904 -0.973702 -0.047546
H 2.753254 -0.619761 -0.913495
H 2.743446 -0.676260 0.863543
H 2.516953 1.809174 0.946266
H 2.496874 1.865273 -0.827990
H 4.803800 0.868760 -0.877133
H 4.818364 0.824584 0.894342
H 4.583613 3.181824 -0.633834