33
H20 C10 N1 O1 F1
C 4.230122 1.486504 -2.857255
C 3.268270 0.708943 -1.961535
C 3.049669 1.203625 -0.526611
C 4.255056 1.877776 0.180309
C 3.624502 3.262495 -0.087566
C 2.275456 2.547327 -0.283841
N 1.247232 3.105918 -1.126236
C 1.524563 3.560109 -2.470579
C 0.412067 4.483228 -2.936511
O 0.700120 4.917086 -4.237934
C -0.263872 5.770463 -4.776601
C 0.200032 6.170082 -6.161057
F -0.740408 7.012438 -6.725813
H 4.278595 1.021901 -3.854576
H 5.252888 1.485768 -2.449725
H 3.931073 2.533738 -2.999969
H 3.636458 -0.329824 -1.900569
H 2.280457 0.640531 -2.450080
H 2.605830 0.366515 0.036576
H 5.255399 1.694072 -0.238031
H 4.281591 1.640113 1.254285
H 4.009456 3.696910 -1.021797
H 3.681599 4.025933 0.703640
H 1.815527 2.441544 0.713159
H 0.419330 2.514994 -1.108388
H 1.639588 2.751831 -3.219021
H 2.463802 4.133488 -2.476231
H 0.326908 5.341198 -2.240498
H -0.560358 3.948773 -2.912375
H -0.395433 6.678339 -4.154500
H -1.252264 5.273497 -4.847187
H 0.311782 5.282663 -6.803660
H 1.164254 6.699815 -6.109720