23
H13 C7 N1 F2
C 0.823621 -0.380765 0.774568
C 2.012542 0.028681 -0.077607
C 3.176882 -0.983041 -0.079231
N 3.869854 -0.157511 0.916887
C 5.296838 -0.007019 0.858777
C 5.998209 -1.185125 1.486677
F 5.746016 -2.322018 0.775531
F 7.344679 -0.996024 1.451562
C 3.028347 1.001434 0.581380
C 2.626383 1.892865 1.736828
H 0.262964 -1.193083 0.285336
H 0.128041 0.459297 0.928814
H 1.143488 -0.744451 1.763752
H 1.674973 0.344780 -1.074928
H 3.709955 -1.020631 -1.049847
H 2.949406 -2.014362 0.238000
H 5.588092 0.886266 1.433072
H 5.685188 0.113388 -0.176865
H 5.692139 -1.362556 2.529380
H 3.506209 1.618690 -0.207650
H 2.144601 1.317322 2.540944
H 1.930122 2.676840 1.399436
H 3.511143 2.393992 2.161105