30
H17 C9 N1 O1 F2
C 1.106378 0.337562 0.645454
O 2.429429 0.186727 0.226832
C 2.555458 -0.492843 -0.991372
C 4.044592 -0.591819 -1.318643
N 4.389463 -1.263914 -2.552793
C 4.076284 -2.682012 -2.587538
C 4.775957 -3.360019 -3.762531
C 4.454620 -2.683715 -5.101840
C 3.054330 -3.013143 -5.577456
F 2.832658 -2.458513 -6.804291
F 2.917905 -4.361156 -5.738891
C 4.675068 -1.169711 -4.985306
C 3.979530 -0.574380 -3.763940
H 1.109016 0.881062 1.601360
H 0.605483 -0.638660 0.799907
H 0.503208 0.915030 -0.082878
H 2.013357 0.046378 -1.794997
H 2.103199 -1.503128 -0.920571
H 4.541490 -1.111170 -0.481565
H 4.454373 0.432066 -1.346797
H 2.980785 -2.867753 -2.649584
H 4.416182 -3.140975 -1.645681
H 4.509335 -4.426903 -3.794461
H 5.864453 -3.300605 -3.604771
H 5.121564 -3.088265 -5.881304
H 2.246992 -2.675044 -4.909459
H 4.335047 -0.658198 -5.898052
H 5.758057 -0.990175 -4.895187
H 2.877050 -0.605855 -3.912182
H 4.249961 0.489422 -3.672203