30
H19 C9 N1 O1
C 1.060744 -0.333237 -0.239262
O 2.361555 0.102453 0.017853
C 2.836529 1.022236 -0.924315
C 4.256435 1.416351 -0.548838
N 4.795891 2.404155 -1.469480
C 4.437430 3.752035 -1.042565
C 4.761268 4.799777 -2.095729
C 6.241270 4.738000 -2.450728
C 6.618634 3.313875 -2.838914
C 6.224849 2.274014 -1.781243
C 6.583929 0.881601 -2.294707
H 0.775576 -1.046223 0.547748
H 0.979269 -0.843509 -1.219418
H 0.333779 0.503072 -0.233022
H 2.177860 1.913991 -0.962994
H 2.840299 0.583756 -1.943294
H 4.862743 0.502631 -0.560862
H 4.265477 1.780947 0.499647
H 4.965345 4.014348 -0.095510
H 3.361248 3.773459 -0.813859
H 4.482608 5.796997 -1.719941
H 4.152304 4.605719 -2.995440
H 6.838220 5.049961 -1.575203
H 6.483886 5.436825 -3.267052
H 7.702573 3.237831 -3.019895
H 6.114429 3.045085 -3.784577
H 6.831539 2.477603 -0.867113
H 5.908543 0.592214 -3.116194
H 6.536531 0.104661 -1.519443
H 7.613680 0.884941 -2.682692