34
H21 C11 N1 O1
C 0.655581 0.026044 -0.199125
C 1.835777 0.632569 -0.330241
C 2.684672 0.603716 -1.569267
N 4.018595 0.085872 -1.309294
C 4.027613 -1.316775 -0.912677
C 4.464560 -1.498678 0.531431
O 4.453420 -2.863477 0.840079
C 4.834057 -3.138828 2.154318
C 4.982804 0.419716 -2.346654
C 6.423709 0.318737 -1.855442
C 7.504693 0.654082 -2.867866
C 7.462671 0.201198 -4.302216
C 7.330607 1.665079 -3.969108
H 0.073744 0.097733 0.724723
H 0.224015 -0.563828 -1.015816
H 2.250254 1.207034 0.507985
H 2.793473 1.639528 -1.932507
H 2.157247 0.037729 -2.368843
H 4.700897 -1.903861 -1.561218
H 3.024549 -1.763282 -1.030063
H 3.781424 -0.935968 1.200391
H 5.477007 -1.067940 0.673251
H 4.795610 -4.227732 2.302399
H 4.157826 -2.662134 2.891376
H 5.864728 -2.793520 2.369469
H 4.785086 1.456325 -2.660180
H 4.840178 -0.215397 -3.248445
H 6.613992 -0.701812 -1.481375
H 6.528046 0.988083 -0.984313
H 8.505206 0.640106 -2.422424
H 6.569423 -0.319256 -4.659330
H 8.394495 -0.144990 -4.758167
H 6.349048 2.127598 -4.105797
H 8.170952 2.326719 -4.197105