33
H20 C10 N1 O1 F1
C 1.039999 0.214094 0.275955
O 2.405147 -0.020653 0.102627
C 2.964901 -0.818009 1.108059
C 4.471842 -0.950405 0.877143
C 5.124886 0.417262 1.037102
N 4.989296 -1.980687 1.782480
C 4.757510 -3.328118 1.277833
C 4.969576 -4.376629 2.363286
C 6.360874 -4.246415 2.981349
C 6.662042 -2.800284 3.391411
C 5.899400 -2.403313 4.642543
F 6.275416 -1.123434 5.041965
C 6.364558 -1.841992 2.232556
H 0.691188 0.839617 -0.558252
H 0.827749 0.745279 1.224661
H 0.453969 -0.726169 0.276635
H 2.480368 -1.813546 1.118352
H 2.797661 -0.370263 2.110187
H 4.615469 -1.266776 -0.179220
H 5.056686 0.772195 2.078238
H 4.587218 1.133303 0.400426
H 6.180733 0.420337 0.731893
H 5.438676 -3.542572 0.421079
H 3.732984 -3.405717 0.887436
H 4.837217 -5.381462 1.932268
H 4.191693 -4.255954 3.135342
H 7.112646 -4.552282 2.234214
H 6.474975 -4.927391 3.840516
H 7.735290 -2.714625 3.630365
H 4.813225 -2.384899 4.467106
H 6.120989 -3.092117 5.473509
H 7.089689 -2.039755 1.410492
H 6.544028 -0.819061 2.582342