25
H15 C8 N1 O1
C 2.251272 3.476255 -1.099369
C 2.814039 2.508278 -0.377371
C 3.202241 1.150116 -0.901200
C 2.435445 0.044685 -0.177016
O 1.063407 0.200146 -0.417012
N 4.625066 0.922230 -0.688640
C 5.495889 1.698243 -1.544072
C 6.964430 1.554276 -1.222257
C 7.404765 0.939757 -0.118832
C 7.888918 2.169284 -2.235817
H 1.987716 4.441860 -0.657416
H 2.028166 3.336153 -2.163088
H 3.036584 2.673503 0.685332
H 2.924347 1.097327 -1.976264
H 2.803953 -0.933064 -0.547831
H 2.679282 0.096046 0.902314
H 0.592305 -0.456733 0.106600
H 4.830160 -0.067391 -0.821635
H 5.232366 2.767025 -1.447297
H 5.352850 1.466360 -2.622966
H 6.706824 0.512046 0.605399
H 8.475208 0.857594 0.093992
H 7.640200 3.231703 -2.397200
H 7.784850 1.669996 -3.213745
H 8.940895 2.103484 -1.923799