27
H17 C8 N1 O1
C 2.278545 3.369856 -1.616017
C 2.892392 2.518462 -0.795082
C 3.220987 1.086419 -1.121390
C 2.448730 0.129031 -0.202776
O 1.061279 0.303622 -0.250854
N 4.643665 0.837597 -0.944240
C 5.494418 1.437104 -1.957209
C 6.985109 1.270498 -1.653129
C 7.397421 -0.199427 -1.570200
C 7.820498 2.015660 -2.692675
H 2.052950 4.396999 -1.313943
H 1.974407 3.068230 -2.624834
H 3.195942 2.844797 0.208638
H 2.890961 0.884955 -2.166507
H 2.741081 -0.909512 -0.459682
H 2.764521 0.304439 0.838461
H 0.776248 0.178065 -1.164022
H 4.796886 -0.169500 -0.932448
H 5.263584 2.514156 -2.006933
H 5.286256 1.032000 -2.974001
H 7.164745 1.732026 -0.665762
H 7.174464 -0.724770 -2.514843
H 6.878445 -0.728645 -0.755581
H 8.478370 -0.295143 -1.381392
H 7.672139 1.588388 -3.698938
H 8.894929 1.951484 -2.459695
H 7.549580 3.082540 -2.738536