32
H20 C10 O2
C 1.329877 -0.617223 -0.470190
C 2.657490 0.006634 -0.045169
C 2.523853 1.523040 0.086125
C 3.209180 -0.673062 1.227070
C 4.616364 -0.122919 1.642539
C 4.515802 0.949975 2.728752
C 5.592722 -1.214877 2.081545
O 2.263424 -0.521450 2.267480
C 2.201325 -1.732935 2.977370
C 2.455795 -2.774789 1.893129
C 3.119790 -4.050069 2.360626
O 3.290394 -2.069382 0.987525
H 0.977251 -0.167579 -1.411240
H 0.556923 -0.451937 0.296196
H 1.430374 -1.700036 -0.630563
H 3.405082 -0.207971 -0.828471
H 1.847943 1.787525 0.914692
H 2.100646 1.944990 -0.838618
H 3.490210 2.019014 0.257599
H 5.043899 0.345522 0.739823
H 4.186207 0.511013 3.683240
H 3.808173 1.749877 2.473349
H 5.501797 1.412333 2.894018
H 5.240949 -1.729854 2.989614
H 6.572042 -0.766380 2.313438
H 5.738384 -1.973636 1.301626
H 1.211943 -1.826994 3.446065
H 2.976471 -1.781539 3.766656
H 1.501622 -3.016789 1.387532
H 4.069144 -3.833908 2.873284
H 3.325080 -4.715437 1.509154
H 2.457665 -4.585157 3.058595