37
H24 C10 N2 O1
C 0.902903 0.024813 -0.462021
O 2.284274 -0.044079 -0.269150
C 2.881624 -1.131888 -0.912572
C 4.373403 -1.160681 -0.598003
C 4.611019 -1.355256 0.895206
N 4.970092 -2.230183 -1.386340
C 6.420718 -2.296868 -1.350175
C 6.924365 -3.377150 -2.300661
C 8.445035 -3.392139 -2.516619
C 9.186288 -3.425107 -1.180728
N 8.838353 -4.521745 -3.370791
C 8.136156 -4.553590 -4.639940
C 10.269558 -4.592516 -3.597149
H 0.526270 0.906325 0.076204
H 0.384684 -0.872782 -0.071164
H 0.638370 0.129256 -1.532733
H 2.736062 -1.058881 -2.011224
H 2.420820 -2.088866 -0.589433
H 4.783275 -0.165945 -0.883717
H 4.299302 -2.368056 1.199738
H 4.024322 -0.620684 1.464471
H 5.668860 -1.223383 1.166220
H 4.680969 -2.113358 -2.357218
H 6.736607 -2.525272 -0.321129
H 6.894271 -1.323219 -1.611855
H 6.422057 -3.218574 -3.267702
H 6.602693 -4.367926 -1.935371
H 8.716349 -2.435493 -3.026955
H 8.968888 -4.361932 -0.641509
H 8.880749 -2.581925 -0.546408
H 10.274164 -3.342158 -1.304278
H 7.060707 -4.733172 -4.508083
H 8.525530 -5.379362 -5.253371
H 8.256052 -3.614923 -5.227832
H 10.820640 -4.790477 -2.667997
H 10.685752 -3.663215 -4.049076
H 10.491542 -5.422239 -4.284356