32
H19 C9 N1 O1 F2
C 4.227012 2.820030 -1.628315
C 3.981247 1.587756 -0.765134
C 4.430335 1.779188 0.681453
C 4.299865 0.536794 1.571115
C 2.844829 0.145482 1.801681
N 4.933377 0.775573 2.867965
C 6.376932 0.648837 2.881377
C 6.930798 1.089873 4.222284
O 8.327736 0.953669 4.200741
C 8.945044 1.338238 5.386548
C 10.433059 1.154090 5.222475
F 10.918312 2.017174 4.292858
F 11.047619 1.445879 6.398365
H 3.891673 2.660476 -2.664925
H 5.298072 3.078939 -1.659454
H 3.686697 3.696237 -1.234039
H 4.513751 0.722620 -1.198342
H 2.908773 1.332954 -0.796901
H 3.860033 2.601800 1.149602
H 5.485129 2.102732 0.676173
H 4.799683 -0.307340 1.045305
H 2.305507 0.957405 2.316919
H 2.777557 -0.760071 2.426176
H 2.327605 -0.066446 0.855266
H 4.546784 0.119369 3.544432
H 6.812491 1.294994 2.103020
H 6.728339 -0.383023 2.667850
H 6.495491 0.475455 5.037110
H 6.639420 2.140549 4.416501
H 8.615898 0.722159 6.245687
H 8.749467 2.400096 5.635986
H 10.708853 0.131639 4.920212