32
H21 C9 N1 O1
C 1.103004 -0.170408 -0.244206
C 2.566715 0.080230 0.041574
O 3.124206 0.822180 -1.011043
C 4.480181 1.115758 -0.837720
C 4.969105 1.914176 -2.031559
N 6.371135 2.246595 -1.880763
C 6.908348 3.139970 -2.907430
C 6.554911 4.583762 -2.554285
C 8.427318 2.908273 -3.053985
C 8.734012 1.524742 -3.635478
C 9.107466 3.981813 -3.904032
H 0.648513 -0.752435 0.571243
H 0.980654 -0.733453 -1.182165
H 0.556567 0.780596 -0.337743
H 3.105461 -0.882387 0.160034
H 2.683270 0.626763 0.999876
H 5.074356 0.182236 -0.738666
H 4.649252 1.700810 0.089170
H 4.373871 2.839570 -2.091156
H 4.753168 1.341803 -2.959174
H 6.903984 1.380562 -1.868632
H 6.452626 2.910729 -3.897671
H 7.108402 4.908832 -1.658039
H 5.480092 4.678351 -2.337864
H 6.780769 5.276473 -3.377775
H 8.850780 2.958694 -2.033270
H 8.345259 1.442942 -4.664465
H 8.298348 0.700238 -3.050473
H 9.820499 1.350397 -3.674074
H 8.641342 4.050737 -4.901785
H 10.170890 3.737288 -4.051967
H 9.062027 4.977354 -3.439747