36
H23 C11 N1 O1
C 3.998711 0.928831 -1.775900
C 3.540232 1.052202 -0.321938
C 4.525887 1.947547 0.428361
N 2.152585 1.540809 -0.235886
C 1.198070 0.669663 -0.937388
C 0.800150 1.267622 -2.266530
C -0.500486 1.047187 -2.988033
C -0.227321 2.361603 -2.309081
C 0.194022 3.637153 -2.982030
O 1.142668 4.305176 -2.173303
C 1.722553 1.941535 1.115148
C 0.435061 2.761938 1.088120
C 1.624233 0.780864 2.111692
H 5.037337 0.566578 -1.807400
H 3.961113 1.908338 -2.280537
H 3.393202 0.217927 -2.355030
H 3.608889 0.034952 0.125059
H 4.425598 2.996210 0.102563
H 5.553766 1.622439 0.209574
H 4.402395 1.908969 1.519577
H 0.290610 0.531374 -0.330803
H 1.619459 -0.344008 -1.071653
H 1.647263 1.439575 -2.938034
H -1.257470 0.406631 -2.526034
H -0.467424 0.994324 -4.080238
H -0.776662 2.517207 -1.376000
H -0.654357 4.325070 -3.131785
H 0.609755 3.408766 -3.984183
H 1.650818 3.614991 -1.718470
H 2.495360 2.627864 1.485824
H -0.449448 2.152060 0.845386
H 0.508179 3.571546 0.347490
H 0.259724 3.209003 2.078780
H 0.844383 0.059671 1.817264
H 1.367339 1.155151 3.114984
H 2.576856 0.234862 2.194904