32
H21 C9 N1 O1
C 3.806025 -7.303117 -2.541462
C 4.143757 -5.820547 -2.643756
C 4.531016 -5.194319 -1.306768
C 4.841737 -3.701580 -1.407116
C 5.318523 -3.037731 -0.100343
C 4.726556 -1.641898 0.063219
N 6.775408 -2.921541 -0.055371
C 7.513185 -4.167559 -0.029016
C 8.998775 -3.896382 0.116696
O 9.687732 -5.113066 0.091977
C 11.070576 -4.969081 0.219379
H 3.533752 -7.724752 -3.521591
H 2.957961 -7.472968 -1.857959
H 4.662054 -7.880878 -2.155925
H 3.282037 -5.272916 -3.064863
H 4.971785 -5.678992 -3.360625
H 5.395705 -5.738414 -0.890438
H 3.707960 -5.341052 -0.584188
H 3.931479 -3.187793 -1.759709
H 5.608377 -3.521988 -2.181508
H 4.951060 -3.662341 0.745111
H 5.022206 -0.997498 -0.780624
H 5.077082 -1.167250 0.994182
H 3.627586 -1.683663 0.100052
H 7.021390 -2.384771 0.775899
H 7.361901 -4.711349 -0.975213
H 7.191711 -4.851930 0.786147
H 9.194746 -3.354736 1.066800
H 9.332454 -3.230454 -0.705288
H 11.523502 -5.970357 0.186345
H 11.351834 -4.489610 1.177885
H 11.502229 -4.362590 -0.601199