26
H14 C7 N1 O1 F3
C 1.007870 0.343636 -0.569145
C 2.341964 -0.093362 0.028317
C 2.795179 0.626798 1.321473
C 2.436748 2.119586 1.311964
N 2.324591 -0.060930 2.522654
C 0.918588 -0.393770 2.632526
C 0.645865 -1.025001 3.992571
O -0.688865 -1.433709 4.135421
C 4.326959 0.499764 1.396442
F 4.745471 -0.764676 1.284367
F 4.941774 1.198957 0.430133
F 4.806842 0.963142 2.563074
H 0.769305 -0.293308 -1.434331
H 1.045115 1.382235 -0.929788
H 0.171772 0.264679 0.139284
H 3.114388 0.067061 -0.739593
H 2.335024 -1.174577 0.235302
H 1.347408 2.240204 1.387632
H 2.772626 2.618906 0.391822
H 2.893571 2.631427 2.172394
H 2.593396 0.493578 3.334607
H 0.640538 -1.126599 1.859888
H 0.243888 0.480596 2.507722
H 0.946041 -0.319177 4.793343
H 1.276439 -1.921044 4.103440
H -1.243576 -0.644816 4.124111