17
H10 C5 O2
C 1.069294 -0.064944 0.126857
C 2.563257 0.167646 -0.016688
C 3.014784 0.384228 -1.445185
O 2.245663 0.596316 -2.352490
C 4.514284 0.315366 -1.657629
O 4.861653 0.723342 -2.936252
C 6.235270 0.637805 -3.182922
H 0.795029 -0.183277 1.185338
H 0.754153 -0.972784 -0.409881
H 0.496725 0.779661 -0.283046
H 3.148313 -0.663156 0.412899
H 2.877147 1.064750 0.546909
H 4.820282 -0.735080 -1.458742
H 5.008572 0.926078 -0.872893
H 6.416001 0.976667 -4.212779
H 6.610449 -0.399695 -3.083897
H 6.821723 1.277857 -2.495030