39
H25 C12 N1 O1
C 0.626852 0.291230 -0.660525
C 2.108203 0.261239 -0.284367
C 2.527972 -1.144464 0.147060
C 2.965837 0.801815 -1.436301
C 4.455987 0.928532 -1.133865
C 5.225300 1.616733 -2.258002
N 6.658394 1.705546 -1.992200
C 7.377243 0.466612 -2.332441
C 7.707363 0.315871 -3.822241
C 8.627155 0.266716 -1.476986
C 7.244947 2.920171 -2.502070
C 6.686610 4.250726 -1.978383
O 8.003776 4.760547 -1.762974
C 8.552196 3.446621 -1.886602
H -0.007216 -0.043411 0.175959
H 0.425953 -0.373596 -1.518025
H 0.303131 1.305981 -0.942500
H 2.251008 0.936481 0.579690
H 2.460747 -1.850172 -0.698948
H 1.874286 -1.522724 0.949190
H 3.561122 -1.172149 0.525539
H 2.575996 1.794380 -1.725281
H 2.824998 0.152389 -2.320819
H 4.889207 -0.068642 -0.952367
H 4.605357 1.505890 -0.204877
H 4.822636 2.634956 -2.377713
H 5.015166 1.103028 -3.219988
H 6.684686 -0.348219 -2.068820
H 8.494130 1.020083 -4.137067
H 6.822802 0.485549 -4.455954
H 8.074333 -0.701345 -4.028014
H 9.434895 0.962070 -1.753405
H 9.018949 -0.753228 -1.614273
H 8.396173 0.407341 -0.410427
H 7.304787 2.949708 -3.608308
H 6.128211 4.132200 -1.030265
H 6.099004 4.872268 -2.673135
H 8.767762 3.003082 -0.898370
H 9.462103 3.422094 -2.508297