18
H11 C5 N1 O1
C 1.174137 -0.101985 -0.085303
N 2.561180 -0.147554 0.298866
C 3.065115 1.063136 0.939238
C 4.367557 0.615018 1.635029
C 4.414105 -0.911505 1.415081
O 5.178546 -1.262818 0.283413
C 2.941386 -1.236171 1.182872
H 1.000593 0.730890 -0.784703
H 0.491709 0.037307 0.782799
H 0.888317 -1.035488 -0.594223
H 2.340197 1.446077 1.689754
H 3.214864 1.862050 0.195725
H 4.343396 0.856686 2.707323
H 5.267810 1.077329 1.206543
H 4.844610 -1.448838 2.271725
H 4.689136 -0.907794 -0.472304
H 2.374469 -1.226460 2.141733
H 2.796893 -2.216798 0.703964