33
H22 C9 N2
C 7.926207 2.710521 10.663603
C 7.156348 2.313665 9.403698
C 5.754845 2.930439 9.444357
C 7.903741 2.687524 8.105813
C 9.380599 2.295865 8.131691
N 7.254442 2.048945 6.962134
C 7.429153 2.732074 5.694255
C 6.757333 1.973223 4.558542
C 6.878933 2.652633 3.186412
C 6.136949 1.853197 2.120454
N 8.254139 2.880703 2.742937
H 7.326732 2.498132 11.562577
H 8.153869 3.790221 10.664436
H 8.874960 2.164439 10.766194
H 7.052026 1.212404 9.397308
H 5.817941 4.031077 9.480592
H 5.207667 2.597756 10.340077
H 5.137125 2.663164 8.573152
H 7.849137 3.796850 8.013706
H 9.492514 1.226096 8.373411
H 9.950850 2.883746 8.865416
H 9.844015 2.467851 7.148489
H 6.257024 1.960639 7.139373
H 8.507939 2.815459 5.482003
H 7.041427 3.775866 5.719035
H 5.686697 1.844074 4.798658
H 7.191126 0.958323 4.501627
H 6.401852 3.646839 3.261192
H 6.586909 0.852356 2.005090
H 6.190386 2.362232 1.146247
H 5.077346 1.715872 2.385167
H 8.767312 1.997497 2.772087
H 8.737987 3.499418 3.392199