17
H11 C4 N1 O1
C 3.035258 -1.444637 0.557236
C 2.629690 -0.092683 -0.023244
C 1.102545 0.062540 -0.149093
N 0.405102 -0.878613 -1.013384
C 3.325704 0.176535 -1.358685
O 4.730015 0.113623 -1.287929
H 4.128268 -1.515427 0.653826
H 2.708958 -2.271551 -0.095661
H 2.590162 -1.603174 1.552414
H 2.962688 0.697306 0.677113
H 0.664802 -0.010020 0.861122
H 0.880282 1.083642 -0.504795
H 0.575862 -1.835698 -0.707129
H 0.762409 -0.821856 -1.966151
H 2.987497 1.155824 -1.753204
H 3.023055 -0.585909 -2.096023
H 5.019753 0.771858 -0.644974