33
H21 C10 N1 O1
C 2.254225 1.795806 0.575628
C 2.592375 0.724636 -0.144419
C 3.440284 0.741319 -1.382108
C 4.723473 -0.080140 -1.231693
C 5.564653 -0.080719 -2.504019
N 6.802881 -0.836423 -2.382721
C 6.588757 -2.265734 -2.472051
C 7.839445 -0.376073 -3.288028
C 8.558256 0.884776 -2.804192
C 9.289813 0.655450 -1.488929
O 9.424746 1.250833 -3.856329
C 9.989265 2.524157 -3.749956
H 1.636289 1.709372 1.474611
H 2.581041 2.802663 0.291021
H 2.245095 -0.265036 0.182341
H 3.689789 1.782001 -1.649974
H 2.853472 0.329022 -2.222968
H 4.459490 -1.112918 -0.948555
H 5.330749 0.326778 -0.405628
H 5.813339 0.963566 -2.748403
H 4.952396 -0.456556 -3.355503
H 5.838818 -2.592583 -1.736890
H 7.521916 -2.806179 -2.252084
H 6.234734 -2.588161 -3.476759
H 7.449332 -0.181465 -4.310122
H 8.597970 -1.168924 -3.388581
H 7.813170 1.694198 -2.657522
H 10.108117 -0.069177 -1.631273
H 8.588743 0.247607 -0.746890
H 9.713589 1.586005 -1.082941
H 10.513324 2.738847 -4.692820
H 10.724014 2.603380 -2.927019
H 9.219510 3.305894 -3.595344