26
H17 C7 N1 O1
C 0.908891 -0.052359 0.088849
C 2.432895 -0.046448 0.084069
C 3.039140 -1.442466 -0.026023
C 4.561674 -1.444072 -0.037476
N 5.093447 -2.792462 -0.103215
C 6.542125 -2.852018 -0.145113
C 7.038396 -4.288379 -0.230998
C 8.556355 -4.400091 -0.223550
O 9.009805 -5.724806 -0.363458
H 0.501655 0.967244 0.172111
H 0.515377 -0.639373 0.934740
H 0.508913 -0.497071 -0.837074
H 2.802533 0.437378 1.005114
H 2.796025 0.575360 -0.752899
H 2.671862 -1.928342 -0.948743
H 2.691963 -2.070650 0.812740
H 4.934757 -0.968713 0.887734
H 4.922445 -0.803858 -0.874055
H 4.721401 -3.252502 -0.934185
H 6.934704 -2.382623 0.774942
H 6.967679 -2.265408 -0.990168
H 6.656365 -4.761795 -1.152322
H 6.623632 -4.859896 0.618037
H 8.958144 -3.930829 0.696904
H 8.976053 -3.835990 -1.072571
H 8.674304 -6.228710 0.387268