22
H14 C6 N2
C 0.896510 0.074618 -0.401234
C 2.349732 0.056959 0.076696
N 2.816953 -1.159322 0.705027
C 2.169033 -1.716821 1.892711
C 2.527722 -3.129374 1.386044
C 3.767898 -3.732018 2.026189
N 4.206122 -4.917418 1.302730
C 2.774707 -2.453228 0.021487
H 0.663185 1.048128 -0.859771
H 0.189427 -0.077632 0.429250
H 0.704634 -0.702030 -1.158074
H 2.505227 0.882820 0.792582
H 3.014564 0.265779 -0.779449
H 1.074846 -1.552892 1.937517
H 2.606426 -1.400108 2.857372
H 1.701840 -3.856972 1.404512
H 3.554150 -3.916963 3.099544
H 4.576895 -2.982214 1.993825
H 3.524634 -5.665657 1.434189
H 5.073140 -5.268361 1.707584
H 1.918924 -2.576617 -0.670440
H 3.698841 -2.735987 -0.513050