21
H13 C6 N1 O1
C 0.952190 -0.043169 -0.204868
C 2.451739 -0.060925 0.026520
C 2.996426 -1.350354 0.680069
C 4.308675 -0.917536 1.371294
O 4.379029 -1.275330 2.735596
C 4.337099 0.613020 1.125332
N 2.968359 1.040524 0.855758
C 2.199421 1.312177 2.057834
H 0.677681 -0.829713 -0.923897
H 0.628087 0.923754 -0.620120
H 0.388901 -0.230537 0.722287
H 2.946144 0.046964 -0.956124
H 3.140556 -2.157961 -0.051994
H 2.296341 -1.725028 1.445477
H 5.184863 -1.394186 0.907521
H 3.614323 -0.896114 3.184461
H 4.955317 0.822556 0.235440
H 4.777274 1.152318 1.976488
H 2.737541 2.050144 2.670972
H 1.997372 0.427930 2.701352
H 1.223833 1.751848 1.802141