30
H19 C9 N1 O1
C 5.063915 -1.782957 2.349382
C 4.257519 -0.738228 2.572894
C 2.783442 -0.787747 2.281539
C 4.802591 0.552551 3.168351
N 4.602407 1.783301 2.435473
C 3.350637 2.475682 2.596260
C 5.262511 1.974985 1.154198
C 4.538267 1.358001 -0.052162
C 6.708490 1.495093 1.167987
O 7.422562 2.091967 2.212109
C 8.742239 1.644056 2.295249
H 4.683249 -2.730698 1.954000
H 6.137159 -1.727689 2.562115
H 2.459665 -1.796369 1.985663
H 2.520868 -0.094051 1.467239
H 2.198785 -0.475924 3.162766
H 5.879715 0.423334 3.362746
H 4.327099 0.689057 4.156317
H 3.039852 2.446158 3.652880
H 2.503408 2.080406 1.997311
H 3.471735 3.536531 2.315584
H 5.297210 3.068912 0.993332
H 4.545170 0.257988 -0.005612
H 5.020837 1.662015 -0.994413
H 3.491433 1.693556 -0.095495
H 7.165213 1.747422 0.189566
H 6.745885 0.389715 1.252042
H 9.227280 2.159704 3.136501
H 9.315673 1.863945 1.372931
H 8.798130 0.552003 2.475565