21
H13 C6 N1 O1
C -2.140339 0.096629 0.128125
N -0.748233 0.020342 -0.248817
C 0.035867 1.158873 0.196886
C 1.470502 0.746760 -0.113846
C 1.459344 -0.779998 0.094891
C -0.031660 -1.163417 0.218552
C -0.352229 -2.436026 -0.556993
O -1.661809 -2.924011 -0.389105
H -2.592885 1.010660 -0.287538
H -2.279894 0.123865 1.233743
H -2.688373 -0.771440 -0.258785
H -0.089571 1.332612 1.291302
H -0.279554 2.080785 -0.317555
H 2.201423 1.262544 0.524710
H 1.710582 0.990518 -1.159503
H 2.009157 -1.080042 0.998165
H 1.928225 -1.300486 -0.754702
H -0.271216 -1.351820 1.293029
H 0.394433 -3.205766 -0.278595
H -0.225697 -2.228310 -1.631929
H -1.791434 -3.103312 0.550184