18
H11 C5 N1 O1
C 0.985400 -0.107240 -0.004784
C 2.512060 -0.070980 0.009488
N 3.091831 0.046005 -1.331726
C 3.098898 1.044396 0.886380
C 4.498614 0.518929 1.176141
O 4.377826 -0.893729 1.227563
C 3.128691 -1.294686 0.701527
H 0.586878 0.801587 -0.483566
H 0.564527 -0.171276 1.010867
H 0.625473 -0.976172 -0.579953
H 2.725690 0.887046 -1.779635
H 2.765783 -0.731596 -1.906904
H 2.515241 1.132949 1.816293
H 3.097875 2.023001 0.383332
H 4.904244 0.883601 2.133962
H 5.201996 0.808114 0.374554
H 2.468982 -1.647992 1.516875
H 3.270929 -2.131876 -0.003175