23
H14 C7 N1 F1
F 1.011276 -0.201651 -0.098616
C 2.364132 -0.451000 -0.304608
C 2.929372 0.570074 -1.266517
C 4.454476 0.491050 -1.429130
C 4.977105 1.609982 -2.345913
C 4.652908 1.348248 -3.820696
N 5.095931 0.043102 -4.297454
C 4.614887 -1.043678 -3.451980
C 4.953789 -0.860981 -1.970117
H 2.451686 -1.478951 -0.689272
H 2.869551 -0.398954 0.674286
H 2.668015 1.571226 -0.885082
H 2.417886 0.458684 -2.236322
H 4.891193 0.639116 -0.426161
H 6.073991 1.674618 -2.236052
H 4.567042 2.585476 -2.035251
H 5.110015 2.128033 -4.450198
H 3.562747 1.420685 -3.982446
H 6.116084 0.026125 -4.295836
H 5.035589 -1.992085 -3.821819
H 3.519947 -1.120089 -3.578459
H 6.051814 -0.896119 -1.857897
H 4.556047 -1.702952 -1.381128