26
H15 C8 N1 O2
C 1.122945 -0.497633 1.427473
O 2.510293 -0.351458 1.304732
C 3.177887 -1.459041 0.737154
C 2.907754 -1.626159 -0.747483
C 4.668988 -1.210751 1.003851
O 5.416488 -0.733841 0.159927
N 5.101889 -1.524846 2.237647
C 6.466685 -1.492696 2.740344
C 5.981454 -2.245694 3.997818
C 4.555440 -2.261396 3.388958
C 3.473912 -1.555178 4.181193
H 0.753429 0.340623 2.035192
H 0.852526 -1.444024 1.935009
H 0.602999 -0.471342 0.452745
H 2.869113 -2.381949 1.269341
H 3.208028 -0.718694 -1.290029
H 1.842735 -1.824217 -0.935125
H 3.482749 -2.475072 -1.145618
H 6.855576 -0.475712 2.907293
H 7.176084 -2.041830 2.100501
H 6.055126 -1.669151 4.929787
H 6.429622 -3.236340 4.144460
H 4.218267 -3.271605 3.100283
H 3.777019 -0.523675 4.418367
H 3.300903 -2.094392 5.125715
H 2.525200 -1.518518 3.628657