26
H15 C7 N1 O1 F2
C 0.996877 0.382978 -0.336154
C 2.475580 0.128610 -0.077365
C 2.926334 0.546696 1.324487
O 2.119828 -0.058550 2.320010
C 4.420835 0.278689 1.521722
N 5.008029 0.924004 2.685502
C 4.714575 0.250533 3.938577
C 6.409970 1.257902 2.546887
C 6.718557 2.637082 3.085809
F 6.543329 2.699582 4.436585
F 8.027842 2.932545 2.855526
H 0.706130 0.052209 -1.344843
H 0.759175 1.455942 -0.251999
H 0.372130 -0.153651 0.392839
H 3.086002 0.669058 -0.819305
H 2.702058 -0.945167 -0.213414
H 2.766339 1.631625 1.445653
H 2.243177 -1.014620 2.252098
H 4.933317 0.658698 0.626134
H 4.583550 -0.824275 1.534443
H 3.629964 0.155993 4.066733
H 5.115661 0.826559 4.782620
H 5.158088 -0.769294 3.978962
H 6.691900 1.282976 1.484645
H 7.085673 0.533070 3.045637
H 6.093159 3.419468 2.628113