33
H22 C10 O1
C 0.998749 -0.267363 0.102113
C 2.484993 0.057210 0.011883
C 3.128994 -0.441496 -1.278427
C 4.607332 -0.115409 -1.367114
O 5.121682 -0.607271 -2.573505
C 6.494703 -0.376251 -2.739712
C 6.940026 -0.784537 -4.142047
C 6.572358 0.257177 -5.209213
C 5.102096 0.657358 -5.281799
C 8.447764 -1.081779 -4.130652
C 9.026220 -1.568407 -5.454790
H 0.562011 0.103892 1.042129
H 0.825016 -1.354921 0.059303
H 0.439700 0.190556 -0.730090
H 3.011361 -0.384274 0.876107
H 2.628915 1.148825 0.092630
H 2.616832 0.002614 -2.149482
H 3.003679 -1.534708 -1.363163
H 5.148025 -0.560665 -0.505410
H 4.760273 0.982468 -1.301324
H 7.063792 -0.950690 -1.979666
H 6.733027 0.695209 -2.566059
H 6.408760 -1.726634 -4.374051
H 6.875606 -0.130225 -6.195365
H 7.188457 1.159362 -5.036791
H 4.455320 -0.220814 -5.436564
H 4.934299 1.350357 -6.121647
H 4.762535 1.152472 -4.360801
H 8.642325 -1.844564 -3.357864
H 8.988858 -0.174633 -3.804158
H 8.464861 -2.436465 -5.838318
H 10.075297 -1.878928 -5.331023
H 9.007154 -0.788775 -6.231393