33
H21 C10 N1 O1
C 1.552533 0.290683 -0.711997
C 2.948584 -0.001193 -0.177988
C 2.992610 -0.757575 1.145795
C 2.294977 -2.127455 1.096416
N 0.876346 -2.038995 1.415292
C 0.100631 -3.187766 0.957823
C 0.275674 -4.261981 2.040674
C 0.357459 -3.432418 3.334736
C 0.619542 -1.966986 2.864822
C -0.547779 -1.034957 3.169881
O 4.358247 -0.905258 1.482287
C 4.605059 -1.039659 2.850679
H 1.611523 0.896103 -1.629814
H 0.950324 0.850551 0.021258
H 1.002377 -0.630857 -0.951631
H 3.498756 0.943366 -0.035341
H 3.521561 -0.586054 -0.918690
H 2.492175 -0.141813 1.920745
H 2.838442 -2.819766 1.772372
H 2.403940 -2.542283 0.081302
H 0.423647 -3.505924 -0.043999
H -0.962792 -2.901569 0.882493
H 1.211829 -4.817034 1.871079
H -0.543960 -4.995471 2.048234
H 1.156309 -3.791786 3.999448
H -0.582808 -3.486554 3.905045
H 1.515711 -1.561652 3.358970
H -1.471476 -1.380572 2.677951
H -0.334001 -0.014501 2.816703
H -0.741808 -0.992183 4.253346
H 5.689683 -1.157339 2.989587
H 4.107579 -1.924115 3.293283
H 4.275255 -0.147466 3.418347