33
H21 C10 N1 O1
C 0.751505 -0.606213 0.037787
C 2.174804 -0.217096 0.369703
O 3.004284 -1.341558 0.244739
C 4.349670 -1.089739 0.539908
C 5.130114 -2.388641 0.337598
N 6.522843 -2.346992 0.700685
C 7.404758 -1.462934 -0.034660
C 8.708558 -1.537554 0.755802
C 9.707327 -0.433151 0.450620
C 8.179314 -1.546247 2.195717
C 6.864067 -2.346382 2.128978
C 6.986505 -3.769751 2.665512
H 0.085548 0.264754 0.128655
H 0.392758 -1.390012 0.722434
H 0.683188 -0.988874 -0.992111
H 2.231524 0.188868 1.400684
H 2.519752 0.591852 -0.306711
H 4.461701 -0.731562 1.584123
H 4.747150 -0.289414 -0.116450
H 5.035716 -2.685195 -0.721815
H 4.630138 -3.175993 0.926276
H 7.055859 -0.406166 -0.064263
H 7.515034 -1.795237 -1.081738
H 9.175597 -2.515202 0.544254
H 9.272419 0.560490 0.649678
H 10.022680 -0.457784 -0.604662
H 10.611707 -0.533220 1.071287
H 7.975579 -0.507833 2.506478
H 8.896011 -1.970472 2.915427
H 6.087243 -1.825531 2.721765
H 7.809409 -4.303114 2.162724
H 6.057810 -4.336272 2.491123
H 7.180806 -3.769805 3.750102