27
H17 C8 S1 N1
C 1.220021 0.053775 0.024641
C 2.745251 0.013329 0.086335
C 3.314898 1.322080 0.630670
C 3.206562 -1.200455 0.914811
C 4.709322 -1.360267 0.945658
S 5.546284 -1.901169 -0.402824
N 5.287530 -1.011649 2.091439
C 6.718666 -0.990031 2.375703
C 7.327740 0.343450 1.949817
C 6.939320 -1.293220 3.851201
H 0.874155 0.887211 -0.606649
H 0.786824 0.192558 1.029511
H 0.809414 -0.879107 -0.392704
H 3.131070 -0.132931 -0.936930
H 2.994414 1.488626 1.673394
H 2.966407 2.178658 0.032762
H 4.415975 1.331672 0.610985
H 2.778212 -2.115591 0.480285
H 2.816461 -1.105376 1.943384
H 4.679793 -0.663701 2.829691
H 7.162189 -1.789714 1.763614
H 6.877855 1.176419 2.513675
H 7.164943 0.515739 0.875614
H 8.412232 0.345989 2.137124
H 6.482242 -0.517490 4.487760
H 8.015687 -1.320964 4.074227
H 6.505263 -2.266909 4.124246