21
H13 C6 N1 O1
O 0.991338 -0.081909 -0.353228
C 2.394178 -0.069426 -0.229931
C 2.758911 -0.105667 1.241279
C 4.275160 -0.096027 1.460354
N 4.738336 -0.128785 2.829123
C 4.348093 0.890377 3.805209
C 4.404536 -0.189443 4.902225
C 4.370434 -1.208210 3.747514
H 0.774002 -0.058610 -1.291387
H 2.830048 0.837478 -0.695382
H 2.850178 -0.939414 -0.743995
H 2.311724 -1.008814 1.688604
H 2.293218 0.762174 1.737017
H 4.702120 0.804333 0.983472
H 4.720251 -0.959998 0.935211
H 3.321748 1.283378 3.664238
H 5.037624 1.748478 3.887524
H 3.572890 -0.218005 5.618362
H 5.359284 -0.194194 5.446182
H 3.352586 -1.614671 3.584699
H 5.078050 -2.054734 3.782969