27
H18 C7 N2
C 1.106065 0.872001 -2.376269
C 2.573906 0.687246 -2.016643
C 2.843094 -0.530422 -1.121653
N 2.208895 -0.295480 0.152137
N 4.299836 -0.793130 -1.061339
C 4.769321 -1.512354 0.121498
C 5.259199 -0.607452 1.245096
C 4.802839 -1.397132 -2.291818
C 6.246747 -1.018405 -2.587550
H 0.956158 1.779498 -2.981130
H 0.485861 0.956643 -1.471733
H 0.729504 0.016250 -2.960447
H 2.954615 1.574061 -1.479502
H 3.169392 0.613803 -2.938390
H 2.335985 -1.416822 -1.565438
H 2.626151 0.506425 0.622550
H 2.283783 -1.093980 0.776786
H 5.611900 -2.151887 -0.182708
H 4.002808 -2.216462 0.504684
H 6.054200 0.059332 0.875757
H 5.667478 -1.204617 2.076349
H 4.453258 0.022511 1.648127
H 4.178951 -1.067284 -3.134672
H 4.701073 -2.504123 -2.263724
H 6.342047 0.073845 -2.691639
H 6.590970 -1.488584 -3.522143
H 6.927246 -1.340721 -1.783485