30
H19 C9 N1 O1
C 9.579528 -2.562215 -3.066721
C 9.323586 -1.246612 -3.767136
O 8.559746 -0.416950 -2.931656
C 8.271465 0.832095 -3.489476
C 7.454369 1.638206 -2.497782
N 7.159475 2.954345 -3.029012
C 6.441661 3.811057 -2.112703
C 6.126196 5.234229 -2.605398
C 6.482332 5.758373 -1.199423
C 7.228101 4.430659 -0.930225
C 7.136343 3.808117 0.449506
H 10.179394 -3.225579 -3.707352
H 8.631148 -3.070074 -2.833469
H 10.126881 -2.401725 -2.125245
H 8.792827 -1.418624 -4.726024
H 10.283995 -0.753611 -4.022318
H 7.707196 0.717444 -4.439550
H 9.200216 1.386130 -3.735294
H 8.043785 1.748316 -1.572948
H 6.545246 1.060032 -2.225576
H 6.607540 2.855803 -3.881366
H 5.519322 3.330820 -1.716991
H 5.116359 5.430349 -2.994866
H 6.869370 5.546006 -3.355572
H 5.591048 5.852730 -0.558489
H 7.061974 6.690906 -1.132510
H 8.281767 4.527805 -1.242562
H 6.084454 3.662635 0.746066
H 7.610012 4.454314 1.206556
H 7.636393 2.827370 0.487825