35
H22 C10 N1 O1 F1
C 1.092456 0.439024 -0.268735
C 2.590477 0.199755 -0.135611
O 3.328145 1.216883 -0.790684
C 3.017436 0.042869 1.324747
C 4.503804 -0.260469 1.472046
N 4.999151 -0.156953 2.835372
C 4.445181 -1.177047 3.701554
C 6.453315 -0.128732 2.871519
C 7.036777 0.333836 4.202706
C 8.547942 0.534382 4.135042
C 9.152539 0.971428 5.465874
C 10.646881 1.179787 5.375073
F 11.153258 1.572008 6.608335
H 0.815769 0.558587 -1.326888
H 0.797718 1.355065 0.270913
H 0.515467 -0.399992 0.149124
H 2.849202 -0.727650 -0.675295
H 3.126782 2.050118 -0.345653
H 2.401222 -0.747715 1.781708
H 2.790521 0.978360 1.868629
H 5.051700 0.468309 0.855823
H 4.718515 -1.264674 1.035489
H 3.347193 -1.126640 3.711442
H 4.780432 -1.034447 4.738473
H 4.734879 -2.206694 3.389579
H 6.790633 0.568221 2.086777
H 6.884883 -1.123174 2.607249
H 6.810597 -0.394459 4.998984
H 6.544753 1.278775 4.491000
H 8.783134 1.285883 3.360680
H 9.027310 -0.404810 3.806251
H 8.947056 0.213416 6.240447
H 8.683149 1.911361 5.801980
H 10.896700 1.965503 4.643070
H 11.162402 0.251129 5.079260