39
H25 C12 N1 O1
C 2.287956 -1.107432 -3.601630
C 2.609113 -0.027102 -2.571148
C 3.127796 -0.554394 -1.215794
C 2.634032 0.357502 -0.089389
C 4.668502 -0.710416 -1.140102
C 5.073063 -1.602324 0.032374
N 5.214617 -1.248267 -2.384338
C 6.661755 -1.315186 -2.451089
C 7.097609 -1.721835 -3.846068
O 8.494402 -1.792322 -3.880586
C 9.016385 -2.165814 -5.124582
C 10.524592 -2.198928 -5.069086
C 11.284183 -1.200891 -4.243419
C 11.238028 -2.649023 -3.826923
H 1.959429 -0.665069 -4.555377
H 1.474354 -1.756561 -3.238700
H 3.155158 -1.752386 -3.802813
H 1.689820 0.553191 -2.388502
H 3.328365 0.702837 -2.986782
H 2.691725 -1.559045 -1.062204
H 2.974079 1.394165 -0.252945
H 2.991947 0.042481 0.901811
H 1.533722 0.370100 -0.052413
H 5.084616 0.307246 -0.952295
H 4.791788 -2.647071 -0.179116
H 4.578165 -1.292515 0.962926
H 6.156325 -1.571375 0.219571
H 4.904895 -0.652104 -3.149093
H 7.042629 -2.067850 -1.743345
H 7.153272 -0.352971 -2.189042
H 6.726362 -0.986459 -4.590518
H 6.643164 -2.699075 -4.105165
H 8.688697 -1.453417 -5.909856
H 8.632028 -3.163919 -5.420215
H 10.974697 -2.488207 -6.024045
H 10.697138 -0.493251 -3.652054
H 12.221632 -0.804774 -4.643378
H 10.621334 -2.899475 -2.959775
H 12.143755 -3.251101 -3.940245