27
H17 C7 N1 O2
C 1.180802 -0.395020 -0.058522
O 2.553875 -0.179703 -0.186236
C 2.872167 1.106788 -0.643932
C 4.381580 1.242858 -0.708874
C 4.878084 2.515509 -1.397229
C 4.370694 3.780284 -0.708212
N 6.338896 2.486370 -1.409991
C 6.970639 3.367652 -2.370697
C 8.487602 3.291824 -2.257977
O 9.139299 4.174777 -3.134693
H 1.026981 -1.423452 0.298862
H 0.649483 -0.277860 -1.023972
H 0.715894 0.300399 0.668345
H 2.434570 1.869139 0.031428
H 2.430061 1.281041 -1.648078
H 4.772141 0.367642 -1.256000
H 4.800397 1.196966 0.311015
H 4.478958 2.512324 -2.436593
H 4.663429 3.781397 0.354480
H 3.274880 3.857852 -0.769754
H 4.783679 4.686456 -1.175850
H 6.639559 1.532194 -1.604933
H 6.667907 4.409524 -2.179601
H 6.675042 3.143151 -3.421134
H 8.817672 2.244525 -2.413371
H 8.784339 3.570349 -1.234627
H 8.935430 3.899526 -4.036265