30
H19 C9 N1 O1
C 2.576594 0.660208 1.366779
C 2.235976 0.209348 -0.050774
C 2.979532 1.105742 -1.048764
C 2.785237 0.682477 -2.498998
C 3.129142 -0.794895 -2.652105
C 2.339560 -1.659033 -1.665802
C 0.854865 -1.757110 -2.048975
N 2.578296 -1.196645 -0.290854
C 2.122385 -2.145791 0.713004
C 3.239097 -2.587464 1.657006
O 2.818954 -3.592227 2.547938
H 2.325288 1.725665 1.481455
H 3.653970 0.541652 1.565263
H 2.019541 0.109648 2.138170
H 1.142735 0.371093 -0.193497
H 4.055580 1.066168 -0.800898
H 2.653961 2.147904 -0.900191
H 3.414087 1.295988 -3.163626
H 1.740584 0.863300 -2.803843
H 4.205084 -0.936780 -2.454020
H 2.938567 -1.142257 -3.680127
H 2.756895 -2.678449 -1.718326
H 0.357879 -0.775448 -2.060212
H 0.303246 -2.401573 -1.347254
H 0.748658 -2.195422 -3.053571
H 1.744139 -3.057439 0.223781
H 1.270233 -1.753956 1.302656
H 3.657788 -1.716763 2.194244
H 4.057122 -3.012155 1.053413
H 2.147576 -3.210245 3.125309