27
H17 C8 N1 O1
C 3.369937 -0.185606 -1.148397
C 2.431263 -0.006348 0.043743
C 0.982297 -0.429350 -0.293918
C 0.190239 0.515347 -1.188291
O -1.095672 0.018176 -1.483311
N 2.579462 1.314165 0.627989
C 1.871470 1.601151 1.868110
C 1.746443 3.133099 1.906225
C 2.767361 3.613006 0.872045
C 2.703501 2.512828 -0.182387
H 4.400105 0.086612 -0.872105
H 3.074740 0.432222 -2.010444
H 3.370252 -1.235801 -1.476238
H 2.767311 -0.722078 0.817703
H 1.025874 -1.421885 -0.778075
H 0.406087 -0.571244 0.635053
H 0.754072 0.738421 -2.114982
H 0.034060 1.475946 -0.673434
H -0.984070 -0.823276 -1.941062
H 2.434569 1.208723 2.737045
H 0.869975 1.132445 1.910670
H 1.914568 3.549135 2.910014
H 0.734566 3.433677 1.591025
H 3.777187 3.645646 1.312464
H 2.539465 4.609615 0.466825
H 3.609241 2.484166 -0.808831
H 1.844786 2.693449 -0.864528