23
H14 C7 N1 F1
C 2.396666 -0.370339 0.273861
C 0.916748 -0.064716 0.452496
C -0.029334 -1.254257 0.149251
C -1.125505 -0.669695 -0.753533
N -1.027773 0.772007 -0.565185
C -1.750285 1.537088 -1.552003
C -1.869442 2.998375 -1.164580
F -2.668233 3.649018 -2.092789
C 0.397317 1.042332 -0.470699
H 2.725290 -1.163099 0.964304
H 3.016026 0.519970 0.468876
H 2.608356 -0.710220 -0.753553
H 0.746277 0.261136 1.491225
H -0.449458 -1.669309 1.076853
H 0.503213 -2.071747 -0.359931
H -2.137206 -1.028395 -0.506405
H -0.930935 -0.942131 -1.814546
H -2.770614 1.129201 -1.636065
H -1.286351 1.464364 -2.562380
H -0.891611 3.504635 -1.151345
H -2.334008 3.094086 -0.170249
H 0.599548 2.049516 -0.074801
H 0.889351 0.970230 -1.469633