19
H12 C5 O2
C 2.028858 -3.075061 1.828574
O 2.368700 -2.263531 0.740564
C 2.811547 -0.957985 1.051708
C 2.252464 -0.023971 -0.010492
C 4.345753 -0.920764 1.142941
C 4.907670 0.481296 1.341047
O 4.817108 -1.795014 2.152002
H 1.634841 -4.021068 1.427715
H 1.239183 -2.614782 2.454907
H 2.895092 -3.301621 2.471978
H 2.408234 -0.656454 2.041446
H 2.699252 -0.241958 -0.994042
H 2.441451 1.031113 0.232020
H 1.165262 -0.168797 -0.088410
H 4.730865 -1.338071 0.197133
H 4.448529 0.969098 2.218158
H 4.739420 1.123492 0.464883
H 5.992201 0.417329 1.513468
H 4.550922 -1.425341 3.003531