19
H10 C6 O3
C 0.997172 -0.093835 -0.037207
C 2.524342 -0.062841 0.089192
C 2.937468 0.305369 1.513261
C 3.132555 -1.406615 -0.286801
O 2.941531 -1.702369 -1.675605
C 2.888298 -0.761762 -2.616861
O 2.773217 -1.060573 -3.773933
O 2.941129 0.516978 -2.248613
C 3.135630 0.928831 -0.890452
H 0.570710 -0.833648 0.657403
H 0.662093 -0.357626 -1.052046
H 0.572569 0.891560 0.208506
H 2.539847 -0.427797 2.231721
H 2.540566 1.295283 1.785896
H 4.032693 0.333267 1.623247
H 2.665095 -2.236646 0.260274
H 4.214790 -1.415801 -0.078404
H 2.672814 1.922035 -0.812463
H 4.218480 1.032889 -0.713542