30
H18 C8 O4
C 1.378844 -0.437488 0.768195
O 2.060675 0.190744 -0.285243
C 2.676739 -0.569357 -1.306855
C 2.162158 -2.001812 -1.398340
O 2.485916 0.130306 -2.499452
C 1.163792 0.248262 -2.955399
C 4.214846 -0.538785 -1.031589
C 4.765620 0.878729 -1.144808
O 4.416489 -1.126008 0.239497
C 4.715643 -0.335002 1.359377
O 4.789605 -1.398963 -1.968432
C 6.184445 -1.545303 -1.916246
H 1.100304 0.355138 1.477697
H 2.002935 -1.172394 1.302686
H 0.450927 -0.935805 0.437876
H 1.066216 -2.032544 -1.464796
H 2.479423 -2.585160 -0.525368
H 2.585871 -2.465400 -2.297006
H 1.155451 1.027725 -3.730339
H 0.477855 0.553944 -2.147650
H 0.788582 -0.687521 -3.407041
H 4.176024 1.573267 -0.533992
H 4.696870 1.194909 -2.192369
H 5.815251 0.930575 -0.825342
H 4.704215 -1.007132 2.229644
H 3.972357 0.460801 1.531119
H 5.717627 0.124307 1.300864
H 6.441151 -2.430604 -2.514992
H 6.540935 -1.707807 -0.885250
H 6.715465 -0.676433 -2.344692