25
H15 C7 N1 O2
C 3.006050 -1.079931 -0.397767
C 2.258505 0.237624 -0.319506
O 1.338065 0.295958 -1.386677
C 3.189975 1.459689 -0.410020
C 4.072884 1.680334 0.812665
N 3.285818 2.111871 1.953079
C 4.080261 2.233066 3.153438
C 2.579970 3.336931 1.626909
C 1.691163 3.120564 0.416879
O 2.421620 2.625103 -0.691253
H 3.660225 -1.226956 0.473752
H 3.617969 -1.127063 -1.312820
H 2.286930 -1.912222 -0.422731
H 1.724784 0.279563 0.650429
H 1.191131 1.238287 -1.548660
H 3.833957 1.325958 -1.293972
H 4.848970 2.435689 0.552258
H 4.603043 0.748719 1.061064
H 4.556128 1.269290 3.391704
H 3.440955 2.517389 4.003449
H 4.885165 2.996341 3.062998
H 3.292396 4.168205 1.417421
H 1.955252 3.645423 2.479814
H 1.244958 4.072253 0.095546
H 0.865558 2.433527 0.680152