30
H19 C8 N1 O2
C 5.114784 1.883653 1.589227
O 5.111804 0.500436 1.403157
C 5.909234 0.080483 0.330761
C 5.811135 -1.440433 0.238237
N 6.595067 -2.069219 -0.812723
C 8.017313 -2.028538 -0.518729
C 6.234653 -1.711538 -2.191415
C 4.719799 -1.746174 -2.386812
C 6.970957 -2.628926 -3.205548
C 6.320045 -2.720860 -4.581516
O 8.327521 -2.249555 -3.362799
H 4.465958 2.116389 2.446023
H 4.728201 2.423091 0.701799
H 6.129985 2.272127 1.804360
H 6.962295 0.394088 0.482157
H 5.568935 0.553660 -0.613378
H 4.749453 -1.711074 0.142518
H 6.141597 -1.858010 1.202864
H 8.167563 -2.246749 0.549435
H 8.491282 -1.047006 -0.733314
H 8.569839 -2.777788 -1.097691
H 6.574793 -0.674826 -2.431858
H 4.317451 -2.750506 -2.176536
H 4.454684 -1.472885 -3.415658
H 4.206579 -1.028363 -1.733560
H 6.996908 -3.638386 -2.761394
H 6.188849 -1.720809 -5.028666
H 5.341315 -3.219620 -4.556022
H 6.980959 -3.302878 -5.240306
H 8.336541 -1.353006 -3.720072