30
H19 C9 N1 O1
C 1.082340 -0.320108 -0.000626
O 2.453810 -0.499850 -0.189975
C 2.909119 -0.029633 -1.425833
C 4.403341 -0.270123 -1.527031
N 4.904511 0.189763 -2.806931
C 6.326295 -0.026782 -3.011835
C 6.830919 0.669367 -4.289021
C 7.984956 -0.204960 -4.828437
C 8.113187 -1.393562 -3.851300
C 8.620042 -2.679056 -4.487998
C 6.718481 -1.490220 -3.227414
H 0.817948 -0.719185 0.989175
H 0.484006 -0.854837 -0.764584
H 0.794994 0.749510 -0.034339
H 2.692641 1.054629 -1.536225
H 2.396125 -0.544036 -2.263983
H 4.586214 -1.352704 -1.431304
H 4.904273 0.213405 -0.660763
H 4.715490 1.188363 -2.890767
H 6.916696 0.348890 -2.146276
H 7.133228 1.709176 -4.093142
H 5.998037 0.703798 -5.009580
H 8.931728 0.348637 -4.919791
H 7.740871 -0.581250 -5.835420
H 8.813946 -1.103683 -3.047925
H 7.938373 -3.017089 -5.286581
H 8.698796 -3.491128 -3.747533
H 9.617007 -2.538248 -4.935836
H 6.703525 -2.094070 -2.306799
H 6.008952 -1.944014 -3.943726