28
H15 C9 N1 O1 F2
C 1.123917 1.685035 -0.312826
O 2.435265 1.387249 0.067183
C 2.657626 1.299104 1.460278
C 2.109501 0.001065 2.041848
C 4.167642 1.417207 1.691240
N 4.771913 2.686113 1.391486
C 5.053294 3.072640 0.019655
C 4.951677 4.585144 -0.005785
C 4.664037 5.048576 1.440492
C 4.580570 3.800709 2.297929
C 3.659747 5.192532 0.368506
F 2.520704 4.474144 0.380759
F 3.381616 6.430280 -0.085200
H 1.129180 1.913877 -1.388551
H 0.726978 2.565029 0.226768
H 0.427919 0.840835 -0.148010
H 2.156453 2.154645 1.956907
H 2.609728 -0.867193 1.582942
H 1.027359 -0.094843 1.868779
H 2.275487 -0.036822 3.129234
H 4.661321 0.630647 1.093235
H 4.369151 1.169653 2.747607
H 4.339875 2.604744 -0.677039
H 6.073680 2.782489 -0.299329
H 5.611876 5.164368 -0.655944
H 5.118192 5.957750 1.841666
H 3.606984 3.740211 2.820884
H 5.359367 3.850190 3.083698