32
H21 C9 N1 O1
C 6.853558 -3.150092 3.847862
C 6.261685 -2.886537 2.467796
C 7.102747 -1.909999 1.645728
C 6.550368 -1.563335 0.255557
C 5.184313 -0.843588 0.344253
C 4.946722 0.212727 -0.731174
N 6.580757 -2.762352 -0.579193
C 6.401772 -2.655646 -2.025068
C 4.984517 -2.934963 -2.511587
C 7.408957 -3.619438 -2.673792
O 8.661354 -3.482640 -2.071086
H 6.239165 -3.860670 4.422325
H 6.925232 -2.219691 4.434687
H 7.869136 -3.571927 3.771649
H 5.236703 -2.494137 2.579428
H 6.168556 -3.845361 1.929294
H 8.117155 -2.326642 1.520609
H 7.217461 -0.971328 2.215179
H 7.268303 -0.857499 -0.198606
H 4.380812 -1.599808 0.322015
H 5.106668 -0.349794 1.327569
H 4.989290 -0.201915 -1.748899
H 5.706865 1.008529 -0.669524
H 3.960162 0.687060 -0.609541
H 5.964539 -3.480503 -0.202320
H 6.699871 -1.633634 -2.313245
H 4.668534 -3.948207 -2.212161
H 4.928269 -2.877633 -3.610415
H 4.259266 -2.220704 -2.096940
H 7.498456 -3.407387 -3.752364
H 7.020299 -4.657390 -2.577841
H 8.415339 -3.313907 -1.141143