18
H11 C6 N1
C -0.057788 0.908631 0.190246
C -0.837714 -0.375307 0.126649
C 0.641003 -0.383483 -0.131905
N 1.469855 -0.972190 0.876149
C 2.868334 -0.627111 0.894616
C 3.745922 -0.539882 -0.332736
C 3.372389 0.706207 0.437934
H 0.135468 1.332489 1.179283
H -0.187072 1.640189 -0.611814
H -1.509545 -0.537663 -0.720045
H -1.170508 -0.811401 1.072551
H 0.940251 -0.515045 -1.183229
H 1.380086 -1.986233 0.842425
H 3.361651 -1.031050 1.784939
H 3.276896 -0.678012 -1.311479
H 4.771691 -0.913173 -0.263580
H 2.664266 1.389588 -0.037446
H 4.139074 1.200376 1.040942