24
H15 C7 N1 O1
C 2.934132 0.293538 1.407260
C 2.485362 -0.057041 -0.006709
C 2.930572 0.993416 -1.026335
C 2.550179 0.591364 -2.446449
O 3.000865 1.516340 -3.408930
C 3.059790 -0.816276 -2.751425
N 2.582872 -1.778428 -1.778086
C 2.938421 -3.133617 -2.131286
C 2.995435 -1.435298 -0.428215
H 2.542076 1.275597 1.714523
H 4.034051 0.336914 1.474077
H 2.581846 -0.452795 2.136822
H 1.381728 -0.101730 -0.025530
H 4.032036 1.098069 -0.977935
H 2.500172 1.979868 -0.789432
H 1.450709 0.579231 -2.531342
H 3.960017 1.584077 -3.321328
H 4.177207 -0.783737 -2.783156
H 2.718647 -1.113409 -3.755586
H 2.551135 -3.380329 -3.132030
H 2.498428 -3.842563 -1.412723
H 4.038610 -3.304217 -2.143404
H 4.108435 -1.453076 -0.331649
H 2.606136 -2.201148 0.262191