31
H19 C10 N1 O1
C 1.196323 0.181410 -0.246172
C 2.372282 -0.298689 0.158355
C 3.145208 0.211270 1.340912
N 4.531944 0.519517 1.030618
C 4.673626 1.598092 0.055661
C 4.855062 1.101618 -1.352891
C 4.157422 1.513729 -2.411426
C 5.359992 0.685441 2.216021
C 6.837239 0.412481 1.953643
C 7.697427 0.566361 3.202977
C 9.171320 0.281953 2.948346
O 9.961136 0.374531 4.109272
H 0.663072 -0.253779 -1.096675
H 0.720910 1.029605 0.259438
H 2.831303 -1.140436 -0.375150
H 3.146163 -0.581704 2.108342
H 2.610101 1.081931 1.782578
H 5.565397 2.192293 0.315818
H 3.816987 2.300480 0.101806
H 5.647548 0.353147 -1.480198
H 3.348935 2.247013 -2.311021
H 4.361577 1.132849 -3.416623
H 5.006202 -0.027617 2.977567
H 5.241412 1.697779 2.663460
H 7.212932 1.091714 1.168935
H 6.934141 -0.610510 1.551167
H 7.341518 -0.112481 3.997013
H 7.596438 1.593813 3.598470
H 9.545135 0.955014 2.150543
H 9.289784 -0.747306 2.571568
H 9.894943 1.279470 4.435955