31
H19 C9 N1 O2
C 1.431613 -0.646546 -0.933671
O 2.754086 -0.345171 -0.602574
C 2.903161 0.908975 -0.000663
C 4.373720 1.114470 0.321684
N 4.637373 2.417945 0.900521
C 4.108319 2.612316 2.244857
C 2.964738 3.614423 2.264634
O 2.498218 3.743822 3.577179
C 1.442667 4.648255 3.704800
C 5.991732 2.852983 0.738755
C 6.402581 3.427342 -0.584728
C 6.260899 4.324650 0.616486
H 1.413037 -1.643442 -1.397051
H 1.007537 0.081455 -1.653125
H 0.773785 -0.662905 -0.042235
H 2.285159 0.971262 0.918764
H 2.560225 1.720904 -0.674949
H 4.937540 1.033007 -0.620119
H 4.714235 0.283223 0.976522
H 4.901111 2.973566 2.921020
H 3.749456 1.657894 2.670176
H 2.154115 3.273034 1.588412
H 3.318517 4.589526 1.871477
H 1.144789 4.681566 4.762705
H 0.562333 4.346633 3.103284
H 1.731557 5.670847 3.390835
H 6.759251 2.265844 1.270959
H 5.626761 3.492318 -1.352583
H 7.405742 3.203965 -0.956682
H 5.394198 4.990236 0.645404
H 7.165935 4.723185 1.082084