30
H19 C9 N1 O1
C 2.683827 2.064115 2.038187
O 2.388105 2.183173 0.673065
C 2.788305 1.112239 -0.169687
C 2.159630 -0.220680 0.212754
C 4.310097 1.023915 -0.276925
N 4.863653 2.306396 -0.659966
C 6.299889 2.416621 -0.511151
C 7.100738 1.574859 -1.508692
C 8.512705 2.174714 -1.450749
C 8.318284 3.663092 -1.056875
C 6.811274 3.830694 -0.793786
H 2.334852 2.985954 2.525322
H 3.766908 1.965191 2.238278
H 2.166917 1.211889 2.514943
H 2.407347 1.411603 -1.159469
H 2.587569 -0.632447 1.139918
H 2.327865 -0.956337 -0.587840
H 1.073798 -0.106295 0.350276
H 4.553450 0.260665 -1.035018
H 4.730057 0.647522 0.682687
H 4.409749 3.021117 -0.092314
H 6.625017 2.122833 0.514659
H 6.650877 1.716648 -2.506898
H 7.084278 0.497098 -1.286086
H 9.048795 2.056514 -2.403979
H 9.110966 1.654957 -0.686142
H 8.665134 4.348369 -1.844457
H 8.901424 3.902159 -0.154463
H 6.294240 4.197396 -1.696574
H 6.587841 4.535057 0.022475