22
H14 C6 O2
C 0.891999 0.125325 0.115119
C 2.371369 -0.117592 -0.094225
O 3.037453 1.117434 -0.010243
C 4.458750 1.120408 -0.000684
C 4.995594 0.577460 1.325811
C 5.049155 0.354388 -1.183257
C 4.784583 2.619699 -0.132844
O 6.155982 2.911527 -0.138482
H 0.333317 -0.819420 0.036762
H 0.502648 0.822033 -0.643204
H 0.705390 0.558937 1.109543
H 2.535282 -0.590335 -1.081156
H 2.744370 -0.827778 0.667586
H 4.765224 -0.490986 1.450764
H 4.556978 1.129269 2.172000
H 6.091301 0.675036 1.371925
H 4.934804 -0.734217 -1.070865
H 6.122892 0.578179 -1.260058
H 4.564882 0.664101 -2.122777
H 4.249736 3.156591 0.673282
H 4.371929 2.974429 -1.090433
H 6.496211 2.788690 0.754939