24
H14 C7 O3
C 1.023232 -0.114097 -0.021338
C 2.546361 -0.093016 0.014300
C 3.177951 -0.813760 -1.173915
C 4.689889 -0.781915 -1.122424
O 5.190158 -1.481186 -2.265676
C 6.507416 -1.555275 -2.387410
O 7.312012 -1.086485 -1.621547
O 6.791794 -2.230500 -3.490912
C 8.180658 -2.413530 -3.791241
C 8.281267 -3.198615 -5.075214
H 0.594813 0.411089 0.846093
H 0.638716 -1.146854 -0.010851
H 0.639056 0.374132 -0.931600
H 2.900399 -0.556610 0.951287
H 2.901038 0.951932 0.036769
H 2.841086 -0.349680 -2.116286
H 2.841949 -1.864202 -1.196880
H 5.069078 -1.265172 -0.207576
H 5.068771 0.252743 -1.135958
H 8.661865 -2.944378 -2.955099
H 8.661106 -1.427000 -3.882950
H 7.804398 -4.184867 -4.973518
H 9.340590 -3.351759 -5.327779
H 7.802318 -2.659864 -5.906356