26
H15 C8 N1 F2
C 0.929315 0.073434 -0.347389
C 2.355916 -0.109547 0.156206
C 3.006086 -1.398558 -0.338249
C 4.430774 -1.585026 0.165475
N 5.024622 -2.805432 -0.326419
C 6.391024 -3.137876 0.081818
C 5.980921 -4.619906 0.159155
C 6.312207 -5.395268 -1.084524
F 7.653850 -5.624205 -1.152061
F 5.711248 -6.617813 -1.051271
C 4.534936 -4.091136 0.181902
H 0.487304 1.010748 0.024569
H 0.281123 -0.755201 -0.018381
H 0.896198 0.102250 -1.448752
H 2.361168 -0.100023 1.260211
H 2.971750 0.751126 -0.158414
H 3.016174 -1.416180 -1.442019
H 2.392295 -2.260381 -0.019859
H 4.436426 -1.559115 1.280397
H 5.057547 -0.741305 -0.171255
H 6.657643 -2.743216 1.081675
H 7.185225 -2.860812 -0.631966
H 6.320676 -5.190645 1.034158
H 6.003580 -4.885829 -2.011752
H 4.144385 -4.030897 1.216960
H 3.792017 -4.608577 -0.447624