39
H25 C12 N1 O1
C 0.995247 1.457627 0.851357
C 2.291917 1.517185 0.540740
C 3.413797 1.016204 1.399112
C 4.204421 -0.112407 0.703290
N 5.213812 -0.789062 1.478754
C 4.847630 -2.034881 2.102483
C 3.790425 -1.972100 3.205334
O 3.591807 -3.272553 3.686183
C 2.615597 -3.355452 4.680113
C 6.419119 -0.105367 1.925919
C 7.061812 0.702236 0.791352
C 7.449645 -0.137805 -0.418616
C 6.254998 0.738930 3.210359
C 7.568444 1.079488 3.907283
H 0.225183 1.830550 0.169037
H 0.654453 1.037168 1.804642
H 2.583791 1.944329 -0.428432
H 3.025439 0.664297 2.367819
H 4.102710 1.850819 1.609985
H 4.642551 0.306166 -0.221849
H 3.484994 -0.878369 0.367128
H 5.752747 -2.493729 2.532088
H 4.469628 -2.743729 1.340224
H 2.841091 -1.561189 2.804166
H 4.114600 -1.296636 4.022520
H 2.531634 -4.406451 4.992564
H 1.624058 -3.018437 4.317851
H 2.874493 -2.746626 5.568998
H 7.135388 -0.909621 2.180183
H 7.961721 1.195632 1.189751
H 6.384994 1.520579 0.489370
H 8.170849 -0.922184 -0.136279
H 7.918202 0.480193 -1.200316
H 6.576982 -0.639693 -0.863218
H 5.620598 0.171958 3.908950
H 5.706980 1.667294 2.979456
H 8.144643 0.167475 4.135951
H 7.385648 1.602701 4.858701
H 8.210134 1.732442 3.295456