14
H8 C3 N2 O1
C 0.973849 0.028746 0.069894
N 2.406809 -0.047118 -0.115994
C 3.115077 -1.093958 0.585216
C 3.116669 0.903809 -0.803536
N 2.374152 1.932777 -1.334448
O 4.328435 0.832595 -0.981436
H 0.598507 -0.962379 0.358859
H 0.465625 0.311213 -0.864187
H 0.681636 0.743918 0.860949
H 2.757925 -2.088907 0.271291
H 2.977623 -1.008669 1.677457
H 4.183374 -1.014046 0.356346
H 1.499300 2.211710 -0.907049
H 2.929870 2.696409 -1.701093