29
H19 C8 N1 O1
C 1.146566 -0.494103 0.272901
C 2.648234 -0.321415 0.086861
C 3.009753 0.911882 -0.731212
N 4.449480 1.059880 -0.842811
C 4.926818 2.101404 -1.743508
C 4.492533 3.510193 -1.303744
C 3.220953 4.038799 -1.960731
C 6.447919 1.993009 -1.785795
O 6.954602 2.859063 -2.759414
C 8.350070 2.886748 -2.806362
H 0.917506 -1.393487 0.864633
H 0.631449 -0.593089 -0.696415
H 0.706660 0.370400 0.796163
H 3.066044 -1.215930 -0.408714
H 3.148194 -0.248697 1.067413
H 2.590211 1.801809 -0.232449
H 2.511767 0.850771 -1.725162
H 4.834054 0.168814 -1.155850
H 4.565099 1.941933 -2.784548
H 5.313066 4.203784 -1.544417
H 4.393671 3.508060 -0.204393
H 3.343664 4.100348 -3.054192
H 2.983732 5.051272 -1.597915
H 2.345513 3.402578 -1.763023
H 6.741255 0.945948 -2.010424
H 6.859162 2.235354 -0.783539
H 8.651685 3.587151 -3.598282
H 8.777088 1.891386 -3.038853
H 8.790002 3.228925 -1.849117