26
H17 C7 N1 O1
C 0.887552 0.018509 -0.100874
C 2.411537 0.024381 -0.107746
C 3.005930 1.403982 -0.376003
C 4.528312 1.417773 -0.380476
N 5.048222 2.740677 -0.674907
C 6.493986 2.819808 -0.666137
C 6.956349 4.209571 -1.061785
O 8.354439 4.245022 -1.053956
C 8.878795 5.488959 -1.409712
H 0.488803 -0.989338 0.092933
H 0.483484 0.357230 -1.068837
H 0.489620 0.690420 0.677118
H 2.779526 -0.683345 -0.871097
H 2.785640 -0.351242 0.860734
H 2.641411 2.113646 0.389393
H 2.646682 1.786100 -1.347441
H 4.898426 0.719997 -1.152926
H 4.901447 1.022438 0.590845
H 4.675173 3.398886 0.009234
H 6.896011 2.095699 -1.395146
H 6.944567 2.559956 0.316254
H 6.541671 4.960101 -0.355194
H 6.554794 4.460056 -2.064935
H 9.975673 5.420497 -1.376601
H 8.557425 6.289675 -0.714452
H 8.577845 5.789390 -2.432836