31
H19 C10 N1 O1
C 0.854382 1.720228 -0.393774
O 2.209863 1.411827 -0.249946
C 2.897863 1.362793 -1.471533
C 4.319586 0.894699 -1.249020
C 5.289111 1.203062 -2.412317
C 6.449703 0.211337 -2.186412
C 5.979330 -0.627505 -0.971439
N 4.521771 -0.532732 -0.954790
C 3.875997 -1.477266 -1.867293
C 2.842219 -2.367566 -1.196885
C 3.049366 -2.857421 0.206966
C 1.967368 -1.852708 -0.090891
H 0.404693 1.757244 0.608595
H 0.317710 0.958160 -0.992284
H 0.704757 2.703105 -0.881853
H 2.935093 2.373265 -1.926597
H 2.365413 0.714768 -2.194728
H 4.676580 1.442998 -0.359479
H 5.609046 2.255339 -2.402870
H 4.790605 1.020959 -3.378478
H 7.405972 0.716326 -1.985396
H 6.598517 -0.430743 -3.067574
H 6.373291 -0.188412 -0.039492
H 6.306761 -1.675839 -1.003563
H 4.640096 -2.130668 -2.322030
H 3.398183 -0.960710 -2.718205
H 2.378622 -3.078574 -1.889650
H 3.933821 -2.487911 0.734406
H 2.758909 -3.883683 0.448877
H 2.139405 -0.820261 0.225954
H 0.926408 -2.187301 -0.057541