33
H21 C9 N1 O2
C 8.117749 1.480096 10.507111
C 7.317107 0.804046 9.408019
C 5.895950 0.474595 9.852930
O 7.340097 1.673056 8.292387
C 6.900901 1.125099 7.081339
C 7.279060 2.071342 5.956868
N 6.811570 1.552617 4.685110
C 7.185202 2.318272 3.497566
C 6.084929 2.173741 2.450504
C 8.553678 1.860128 2.955306
C 8.950711 2.532512 1.646366
O 9.579997 2.031769 3.917843
H 8.190336 0.830393 11.391851
H 7.636204 2.424219 10.808412
H 9.135516 1.707862 10.156911
H 7.825069 -0.142718 9.129082
H 5.346589 1.400179 10.090011
H 5.914310 -0.158604 10.752968
H 5.338193 -0.070399 9.076644
H 5.802746 0.968993 7.079478
H 7.366061 0.135282 6.899563
H 8.372232 2.161467 5.925930
H 6.873612 3.079980 6.190021
H 5.796115 1.488809 4.721556
H 7.283691 3.400304 3.743880
H 6.005572 1.128073 2.109821
H 6.264224 2.810991 1.574356
H 5.113144 2.466932 2.877770
H 8.485772 0.769986 2.800805
H 8.903338 3.631397 1.737879
H 8.306066 2.230646 0.808818
H 9.985133 2.254470 1.396121
H 9.697589 2.981583 4.047933