20
H12 C6 N1 F1
F 0.883584 0.086775 0.296197
C 2.264819 0.072768 0.132395
C 2.899022 -0.906147 1.106899
C 4.431478 -0.885288 0.988321
C 4.931105 -1.622678 -0.259628
N 4.411189 -2.978190 -0.388447
C 2.954863 -3.013014 -0.323808
C 2.377337 -2.340263 0.924747
H 2.634329 1.094553 0.316334
H 2.467875 -0.186263 -0.918962
H 2.621300 -0.557168 2.115816
H 4.854655 -1.379510 1.879562
H 4.807696 0.151630 0.993174
H 6.031697 -1.663412 -0.252541
H 4.648081 -1.059881 -1.166853
H 4.784771 -3.544484 0.373743
H 2.621842 -4.061663 -0.373045
H 2.560404 -2.520861 -1.230813
H 2.666440 -2.932936 1.809964
H 1.276573 -2.341818 0.886764