27
H17 C9 N1
C 1.259381 0.229785 -0.156180
C 2.429347 -0.069402 -0.071209
C 3.849300 -0.435454 0.023629
N 4.347499 -0.418542 1.392277
C 3.809788 -1.549876 2.124973
C 5.813374 -0.254506 1.428869
C 6.179878 1.191331 1.090046
C 6.403506 -0.656283 2.786362
C 7.914422 -0.458801 2.905474
C 8.479662 -1.063000 4.185904
H 0.218867 0.499633 -0.233044
H 4.414580 0.278203 -0.591716
H 3.990589 -1.429044 -0.456567
H 2.718853 -1.581082 1.984669
H 3.988984 -1.455987 3.203628
H 4.215937 -2.527531 1.784599
H 6.277262 -0.922555 0.666875
H 5.859604 1.862675 1.903258
H 5.706051 1.540384 0.161818
H 7.264875 1.303521 0.953172
H 6.189827 -1.719259 2.978082
H 5.894529 -0.083325 3.582754
H 8.162273 0.614246 2.874902
H 8.411984 -0.914865 2.031167
H 8.007846 -0.618037 5.077269
H 9.564982 -0.895211 4.264519
H 8.305212 -2.150562 4.227201