28
H17 C9 N1 O1
C 1.255692 -0.628531 -0.240743
C 2.451818 -0.440303 -0.210576
C 3.895069 -0.198628 -0.186116
C 4.344786 0.880388 -1.178274
C 5.848300 1.120161 -1.090387
N 6.363478 1.993378 -2.132892
C 5.851976 3.346281 -2.025940
C 7.813570 1.958761 -2.204810
C 8.348239 2.373865 -3.566687
O 9.738331 2.208138 -3.558563
C 10.346442 2.571454 -4.761482
H 0.192388 -0.801230 -0.264390
H 4.416003 -1.147022 -0.399710
H 4.186372 0.090162 0.837937
H 3.786664 1.806376 -0.970353
H 4.091405 0.573119 -2.205976
H 6.358380 0.147885 -1.184385
H 6.096988 1.507510 -0.074616
H 4.758536 3.364838 -2.137761
H 6.264952 3.979841 -2.823087
H 6.104226 3.820813 -1.051000
H 8.150726 0.926133 -2.026715
H 8.289554 2.588954 -1.420823
H 8.089240 3.426421 -3.798134
H 7.873989 1.745724 -4.348388
H 11.428818 2.405613 -4.661893
H 10.177368 3.638656 -5.006909
H 9.976980 1.966453 -5.612957