27
H17 C9 N1
C 0.594226 0.426743 -0.842067
C 2.005599 0.998633 -0.896020
C 2.001216 2.507673 -0.672646
N 2.822584 0.320822 0.110886
C 4.226856 0.610986 0.055052
C 5.131897 0.138009 -1.063182
C 5.309123 -0.395096 0.342322
C 5.144130 -1.852400 0.690088
C 4.058461 -2.362956 1.602072
C 4.071926 -2.756948 0.147886
H -0.049341 0.895108 -1.601773
H 0.144724 0.599927 0.149243
H 0.599579 -0.659545 -1.028854
H 2.412865 0.811842 -1.913839
H 1.637354 2.744120 0.340871
H 1.343000 3.002257 -1.403236
H 3.005297 2.943602 -0.786170
H 2.653672 -0.676608 0.037192
H 4.458498 1.612082 0.434508
H 5.880923 0.816277 -1.482059
H 4.683681 -0.555731 -1.782724
H 6.149631 0.043030 0.890765
H 6.114602 -2.344369 0.814800
H 3.301125 -1.644152 1.928653
H 4.313961 -3.121427 2.346908
H 3.312792 -2.346647 -0.524301
H 4.360938 -3.781303 -0.101906