36
H23 C11 N1 O1
C 11.009808 -4.393018 7.861052
C 9.970721 -4.369020 7.024310
C 9.779005 -3.391071 5.902663
C 9.720390 -4.065534 4.528721
C 9.483500 -3.082736 3.387186
C 9.448851 -3.749838 2.018307
N 9.223277 -2.762616 0.972485
C 9.023162 -3.241445 -0.397658
C 7.539182 -3.432984 -0.749526
C 6.759658 -4.459924 0.066651
C 9.863433 -4.462125 -0.768122
O 11.218433 -4.153713 -0.580173
C 12.067740 -5.241697 -0.790085
H 11.089290 -5.142727 8.654274
H 11.821216 -3.659741 7.786162
H 9.183659 -5.127385 7.135666
H 10.589239 -2.642601 5.916278
H 8.834772 -2.840205 6.064338
H 8.919658 -4.826472 4.529684
H 10.663518 -4.613189 4.355866
H 10.279696 -2.315951 3.393547
H 8.533792 -2.543006 3.544964
H 8.636546 -4.492603 2.004076
H 10.390805 -4.317302 1.872013
H 10.017802 -2.127692 0.974079
H 9.383200 -2.428639 -1.050293
H 7.050348 -2.450969 -0.641973
H 7.474360 -3.694337 -1.819882
H 6.682497 -4.159562 1.122587
H 7.220199 -5.459882 0.029874
H 5.733034 -4.556853 -0.319795
H 9.668321 -4.736784 -1.824896
H 9.582074 -5.342316 -0.156059
H 13.101905 -4.906753 -0.624646
H 11.989664 -5.637039 -1.822074
H 11.853965 -6.074610 -0.091213