23
H15 C7 N1
C 3.076151 0.435057 1.497860
C 2.570925 0.170324 0.087054
C 3.117097 1.188558 -0.922899
C 2.667159 0.856469 -2.345409
C 3.021450 -0.588384 -2.698762
C 2.490135 -1.583580 -1.650722
C 0.978555 -1.787001 -1.749665
N 2.880447 -1.211901 -0.285822
H 2.802134 1.446513 1.834571
H 4.175800 0.353054 1.539278
H 2.654610 -0.294744 2.205777
H 1.469951 0.267808 0.096385
H 4.222146 1.171321 -0.872045
H 2.799859 2.206561 -0.641642
H 3.130253 1.548424 -3.067067
H 1.576841 1.008130 -2.427865
H 4.121015 -0.684485 -2.740441
H 2.641893 -0.851845 -3.699871
H 2.959227 -2.562304 -1.845216
H 0.418385 -0.847864 -1.621827
H 0.638319 -2.488789 -0.972876
H 0.708260 -2.200962 -2.733248
H 3.888918 -1.340489 -0.194951