27
H16 C8 N1 O1 F1
C 0.856255 -0.000725 -0.205662
N 2.257350 -0.195002 0.113978
C 2.483707 -0.497143 1.515858
C 2.610090 0.744572 2.401130
O 1.420548 1.496992 2.499055
C 3.120828 0.356681 3.778131
F 3.316078 1.486085 4.552527
C 2.918994 -1.070412 -0.827483
C 4.456080 -1.191729 -0.837029
C 4.284536 -2.663568 -1.273781
C 2.833887 -2.622629 -0.747321
H 0.423177 0.755154 0.461329
H 0.255140 -0.931685 -0.106578
H 0.750280 0.358649 -1.241149
H 3.421359 -1.062114 1.616643
H 1.686278 -1.153073 1.930533
H 3.349451 1.416238 1.935514
H 0.744544 0.930867 2.894587
H 4.079153 -0.180812 3.701100
H 2.392075 -0.291335 4.295929
H 2.592313 -0.759000 -1.832725
H 4.883212 -1.125127 0.175248
H 5.011836 -0.507909 -1.496458
H 4.964345 -3.403925 -0.827664
H 4.318575 -2.771270 -2.368645
H 2.778861 -2.970305 0.296152
H 2.051617 -3.129755 -1.332189