19
H10 C5 O4
C 0.983137 -0.025592 -0.040836
O 2.380075 -0.054072 -0.094571
C 2.877016 -0.642608 -1.258155
C 4.387690 -0.601019 -1.177526
O 4.885549 -1.205551 -2.366431
C 6.204962 -1.268748 -2.490726
O 7.005585 -0.861362 -1.688776
O 6.489760 -1.854610 -3.643492
C 7.871472 -2.010022 -3.945467
H 0.689412 0.452639 0.904118
H 0.547896 -1.043385 -0.069918
H 0.549384 0.554868 -0.878143
H 2.536003 -0.100838 -2.163336
H 2.536995 -1.693134 -1.357811
H 4.743186 -1.152535 -0.293530
H 4.742555 0.438426 -1.102593
H 7.915099 -2.508282 -4.920569
H 8.371702 -2.630929 -3.188251
H 8.373043 -1.033256 -4.004337