39
H25 C12 N1 O1
C 0.994171 -0.696155 -0.685670
C 2.366033 -0.262663 -0.182855
C 2.940973 0.930010 -0.943068
C 4.313912 1.371773 -0.444645
C 4.887500 2.561410 -1.206781
C 6.262341 2.987849 -0.697606
N 6.828061 4.124844 -1.426430
C 6.887966 5.356207 -0.623237
C 7.587092 6.505635 -1.346532
C 5.482243 5.799632 -0.216563
C 8.023329 3.818951 -2.176905
C 9.244597 3.185609 -1.464099
O 9.127498 1.986212 -2.235290
C 8.045805 2.520022 -3.002308
H 0.608916 -1.557698 -0.118300
H 1.032431 -0.986880 -1.748338
H 0.259091 0.120101 -0.592663
H 3.070180 -1.110325 -0.254403
H 2.303029 -0.011061 0.890576
H 2.237417 1.779545 -0.873329
H 3.006781 0.679302 -2.017484
H 5.017004 0.521576 -0.512078
H 4.247170 1.624230 0.629385
H 4.193966 3.416447 -1.141487
H 4.967339 2.315344 -2.279872
H 6.939991 2.118804 -0.751427
H 6.196558 3.222129 0.380001
H 7.460023 5.161300 0.312445
H 7.122199 6.694783 -2.328118
H 8.661495 6.327502 -1.497110
H 7.492285 7.422404 -0.746055
H 4.881633 6.030566 -1.111554
H 5.535802 6.704422 0.407828
H 4.949425 5.033379 0.364317
H 8.295804 4.687274 -2.785668
H 9.124307 3.003504 -0.381846
H 10.207667 3.699345 -1.632341
H 7.143316 1.888999 -2.956646
H 8.317231 2.661648 -4.063067