34
H21 C11 N1 O1
C 1.276072 -0.446411 0.350031
O 2.546164 -0.015041 0.736470
C 2.932329 1.187015 0.131112
C 4.322405 1.541442 0.636352
N 4.872814 2.748763 0.027426
C 4.275802 3.917199 0.646868
C 6.340273 2.675284 0.000968
C 6.831127 1.775100 -1.144423
C 5.981660 0.859180 -1.981558
C 6.528737 2.125890 -2.574551
C 7.172697 3.955682 -0.128694
C 6.854813 5.172350 -0.948418
C 7.048220 5.294655 0.545139
H 1.061259 -1.390034 0.871860
H 1.213618 -0.628304 -0.741126
H 0.489133 0.286971 0.615702
H 2.200641 1.985955 0.364356
H 2.949526 1.088105 -0.973590
H 4.974854 0.686515 0.415865
H 4.289018 1.631242 1.743781
H 3.183318 3.801791 0.657696
H 4.478615 4.833130 0.080467
H 4.596539 4.068354 1.699234
H 6.686007 2.212108 0.951228
H 7.848861 1.411259 -0.968152
H 4.905375 0.826259 -1.808146
H 6.420654 -0.095122 -2.285801
H 5.809200 2.933815 -2.736717
H 7.332692 2.070064 -3.313482
H 8.219890 3.648099 -0.220681
H 5.839625 5.282810 -1.338787
H 7.629273 5.567014 -1.612047
H 6.182132 5.529317 1.163836
H 7.978125 5.747824 0.900309