28
H18 C8 O2
C 0.918646 0.039106 0.051853
C 2.441220 0.087003 0.008393
C 3.097968 -0.809111 1.054354
C 4.613015 -0.760349 1.008709
O 5.137867 -1.607971 1.993599
C 6.537840 -1.637604 2.026502
C 6.995284 -2.585234 3.118521
C 8.513055 -2.682604 3.218021
C 8.975249 -3.642578 4.305904
O 10.375264 -3.701035 4.431687
H 0.473274 0.694463 -0.712579
H 0.537657 0.363884 1.033778
H 0.546841 -0.983092 -0.126165
H 2.781210 1.127159 0.154490
H 2.790305 -0.209450 -0.996173
H 2.774840 -1.854492 0.909839
H 2.765827 -0.513481 2.064503
H 4.965458 0.280838 1.165809
H 4.973118 -1.065550 0.003622
H 6.943797 -0.620695 2.210370
H 6.941895 -1.965041 1.045489
H 6.564243 -3.581589 2.921260
H 6.575177 -2.243555 4.079801
H 8.947514 -1.688632 3.420222
H 8.927703 -3.017249 2.249552
H 8.543539 -4.646611 4.120208
H 8.587271 -3.309526 5.282556
H 10.730294 -4.027706 3.596665