30
H19 C9 N1 O1
C 1.861419 0.175225 -1.386597
C 2.362026 -0.148464 0.021508
C 3.012530 -1.500789 0.098145
C 4.263266 -1.799562 0.470594
C 5.343415 -0.856661 0.917142
N 6.569479 -1.102735 0.177660
C 7.681436 -0.270271 0.584013
C 8.852931 -0.439276 -0.377558
O 8.448199 -0.133568 -1.702412
C 10.075522 0.370731 0.045832
C 11.272263 0.183212 -0.877122
H 1.346943 1.148216 -1.410574
H 1.151420 -0.588271 -1.743734
H 2.696950 0.215383 -2.103558
H 1.504245 -0.133599 0.716971
H 3.048726 0.640055 0.364212
H 2.367188 -2.336536 -0.204003
H 4.571477 -2.852291 0.450714
H 5.551566 -1.039768 1.987892
H 5.008208 0.198571 0.850105
H 6.404113 -0.938657 -0.815077
H 8.000732 -0.550292 1.602837
H 7.415576 0.812033 0.625317
H 9.118944 -1.510046 -0.402565
H 8.268190 0.815417 -1.737778
H 10.342866 0.085394 1.076657
H 9.793055 1.438883 0.084108
H 11.605016 -0.867363 -0.886370
H 12.123878 0.803122 -0.558219
H 11.017148 0.460157 -1.910851