26
H17 C7 N1 O1
C 4.651246 3.404687 6.866473
C 4.514080 2.325617 5.800186
C 4.936961 2.800183 4.416199
N 4.807558 1.736674 3.433394
C 5.110837 2.087496 2.048691
C 4.272115 1.209075 1.124577
C 6.617764 1.946055 1.756500
C 6.981958 2.181907 0.295176
O 7.393552 2.791363 2.588977
H 4.344635 3.032873 7.856143
H 4.026257 4.281850 6.632077
H 5.693790 3.752761 6.948565
H 3.466301 1.977243 5.758025
H 5.121332 1.444927 6.069337
H 5.986622 3.125122 4.445194
H 4.338605 3.698708 4.140418
H 3.850071 1.392253 3.471891
H 4.845226 3.151312 1.845119
H 4.563898 0.150326 1.222608
H 4.375981 1.501242 0.071058
H 3.205546 1.292669 1.386288
H 6.903823 0.920341 2.044640
H 6.595167 3.154637 -0.054781
H 6.586533 1.398158 -0.366347
H 8.077064 2.192761 0.192451
H 7.178339 3.703283 2.354593