29
H16 C8 N1 O1 F3
C 0.714927 0.045088 -0.087036
C 2.231499 0.168395 -0.157306
C 2.746435 1.333005 -1.008686
C 2.293832 2.688153 -0.472988
N 4.204996 1.256014 -1.048048
C 4.838404 2.051716 -2.076626
C 6.340092 1.810018 -2.028004
O 6.598046 0.461788 -2.299050
C 7.566482 -0.149862 -1.477141
C 7.091487 2.673124 -3.035873
F 6.691646 2.453046 -4.293150
F 6.917239 3.977735 -2.785696
F 8.409026 2.435458 -2.999581
H 0.423198 -0.866616 0.456348
H 0.271230 -0.011906 -1.094517
H 0.253642 0.897903 0.434238
H 2.648845 -0.765249 -0.573842
H 2.652986 0.268521 0.858364
H 2.322009 1.214019 -2.031476
H 2.658651 2.833513 0.557184
H 1.196963 2.768528 -0.470490
H 2.674787 3.516311 -1.089371
H 4.473044 0.286029 -1.210225
H 4.653124 3.122054 -1.902861
H 4.469620 1.818541 -3.097775
H 6.713429 2.098105 -1.029182
H 7.653167 -1.195802 -1.800977
H 7.259664 -0.131571 -0.416177
H 8.554521 0.330522 -1.570816