30
H19 C9 N1 O1
C 3.836157 6.670386 2.976488
C 3.806555 5.159369 3.020859
O 4.281901 4.653583 1.800707
C 4.306761 3.253941 1.735306
C 4.932913 2.778433 0.427352
C 4.489747 1.344474 0.148158
N 6.393176 2.798688 0.442724
C 7.133073 4.042457 0.403245
C 6.605877 5.350692 -0.245764
C 7.384566 6.128465 0.836767
C 7.415710 4.844323 1.693870
H 3.453693 7.087682 3.919792
H 3.211315 7.047064 2.152265
H 4.863379 7.037011 2.827692
H 2.775058 4.797142 3.207709
H 4.430633 4.785840 3.858299
H 3.272033 2.863081 1.808692
H 4.880862 2.827844 2.583883
H 4.516138 3.427777 -0.370724
H 4.814301 0.672528 0.959193
H 4.929190 0.977146 -0.792514
H 3.395867 1.277465 0.056479
H 6.718868 2.202605 -0.312684
H 8.105838 3.802946 -0.056197
H 5.524498 5.458774 -0.088378
H 6.848574 5.535519 -1.304024
H 6.894259 7.012470 1.271040
H 8.389989 6.419199 0.494169
H 6.557926 4.807701 2.377180
H 8.338143 4.605295 2.246266