26
H16 C7 O3
C 0.554868 -0.050385 -0.447295
C 2.060655 0.091525 -0.263151
C 2.852797 -0.506842 -1.418383
C 4.365788 -0.424024 -1.227293
O 4.825212 0.869324 -0.974152
C 4.580517 1.837797 -1.964350
O 4.713115 -1.205681 -0.128806
C 5.634530 -0.731100 0.826468
O 4.929902 -0.935538 -2.396785
C 6.327429 -1.103124 -2.392457
H 0.004046 0.387444 0.399452
H 0.260012 -1.109474 -0.526268
H 0.214646 0.456994 -1.364808
H 2.372809 -0.401891 0.671630
H 2.322769 1.156597 -0.150952
H 2.589759 -0.015477 -2.368521
H 2.608655 -1.573760 -1.539109
H 5.188447 2.716751 -1.710718
H 3.520375 2.144446 -1.991479
H 4.872137 1.481820 -2.965715
H 5.794213 -1.561428 1.528638
H 5.244184 0.134042 1.385304
H 6.606077 -0.452987 0.387940
H 6.616976 -1.416626 -3.404545
H 6.641429 -1.883947 -1.679633
H 6.856384 -0.165509 -2.150751