31
H19 C10 N1 O1
C -0.255492 1.428165 0.190743
C 0.978623 0.510390 0.050683
C 0.034035 -0.706836 -0.115123
C -0.125450 -1.173743 -1.557134
C -1.166186 -2.278659 -1.713725
N -1.376537 -2.661200 -3.104549
C -2.682591 -3.242485 -3.390876
C -2.781546 -4.707078 -2.976969
O -1.760044 -5.469381 -3.581916
C -0.478541 -4.974406 -3.260201
C -0.331817 -3.511027 -3.668988
C -1.129542 0.174730 0.412888
H -0.499704 1.948335 -0.747686
H -0.234845 2.172238 1.000976
H 1.568453 0.458498 0.978179
H 1.664368 0.714397 -0.787134
H 0.280927 -1.572870 0.521333
H 0.855263 -1.523684 -1.923010
H -0.414560 -0.323896 -2.200422
H -2.129451 -1.912955 -1.322971
H -0.882323 -3.134246 -1.064697
H -2.859224 -3.180357 -4.479900
H -3.469107 -2.653167 -2.894623
H -3.742414 -5.137397 -3.297265
H -2.722813 -4.797194 -1.872546
H 0.255021 -5.597628 -3.793394
H -0.289175 -5.090846 -2.173520
H -0.388943 -3.448970 -4.770238
H 0.660647 -3.138827 -3.374510
H -1.340481 -0.005575 1.477678
H -2.080160 0.123411 -0.141631