27
H17 C7 N1 O2
C 0.962616 0.064073 -0.146538
O 2.351008 0.210740 -0.118223
C 2.807240 0.933300 0.989848
C 4.332692 1.024698 0.927364
C 4.751830 1.614917 -0.417388
N 4.863420 1.830056 2.030148
C 4.226028 1.648914 3.319983
C 6.313797 1.771494 2.151618
C 6.921692 3.158016 2.337717
O 8.320891 3.122396 2.469478
H 0.698793 -0.511094 -1.045506
H 0.443596 1.041564 -0.190941
H 0.584522 -0.480156 0.741235
H 2.479697 0.431050 1.919528
H 2.376079 1.957552 0.999394
H 4.711858 -0.021120 0.990578
H 4.358014 2.639836 -0.514456
H 4.351171 1.007247 -1.239537
H 5.844365 1.657921 -0.530153
H 3.177217 1.978182 3.308854
H 4.740460 2.270645 4.067416
H 4.256840 0.598260 3.684379
H 6.764173 1.321363 1.255329
H 6.617487 1.121834 2.999832
H 6.441672 3.663363 3.198742
H 6.695474 3.765048 1.446740
H 8.528716 2.645991 3.281861