29
H19 C9 N1
C 0.986548 -0.085453 0.185058
C 2.487697 -0.202613 -0.044159
C 2.946711 0.448087 -1.343017
N 4.385384 0.338566 -1.508158
C 4.912398 0.843047 -2.768916
C 4.891757 2.374945 -2.817553
C 5.522354 2.914473 -4.101671
C 6.944790 2.389671 -4.294109
C 6.977802 0.862115 -4.247781
C 6.340300 0.328781 -2.965815
H 0.686979 -0.565906 1.129006
H 0.418239 -0.565848 -0.627984
H 0.670698 0.969411 0.232793
H 2.778898 -1.268214 -0.054952
H 3.038569 0.259789 0.792076
H 2.662425 1.513989 -1.325409
H 2.389361 -0.002402 -2.195503
H 4.639051 -0.645658 -1.427846
H 4.303659 0.477431 -3.628999
H 5.446311 2.749934 -1.938401
H 3.859225 2.747252 -2.725274
H 5.517498 4.016201 -4.087694
H 4.904245 2.610389 -4.965558
H 7.590140 2.790217 -3.491700
H 7.362944 2.753360 -5.246658
H 8.013618 0.496293 -4.332776
H 6.431007 0.461265 -5.119998
H 6.940689 0.639398 -2.091789
H 6.335016 -0.774749 -2.971991