22
H10 C6 N1 O2 F3
C 1.248967 0.880109 0.173012
C 2.734347 0.999980 -0.044724
O 3.500549 1.187027 0.905942
N 3.210115 0.894047 -1.309934
C 2.373488 0.766693 -2.489874
C 4.647290 0.774911 -1.501319
C 5.358425 2.128687 -1.518968
O 5.277559 2.804390 -0.305562
C 6.831789 1.949533 -1.871506
F 7.470236 1.161655 -0.996547
F 6.984710 1.399456 -3.085538
F 7.473924 3.121069 -1.886380
H 1.064117 0.839195 1.252573
H 0.835784 -0.017898 -0.308169
H 0.727457 1.757389 -0.239869
H 2.259429 -0.287267 -2.793845
H 2.832708 1.321350 -3.320353
H 1.380642 1.196088 -2.317624
H 4.824196 0.251310 -2.449810
H 5.070320 0.158647 -0.693501
H 4.935255 2.743744 -2.336186
H 4.775624 2.237665 0.315853