14
H8 C5 O1
C 1.862044 -0.000557 0.201328
C 0.788183 -1.084541 -0.071386
C -0.250683 0.023112 0.044202
C 0.815404 1.099970 -0.108039
C -1.466753 0.051818 0.851832
O -1.510338 0.028397 -0.570990
H 2.756774 -0.022290 -0.435669
H 2.175348 0.013225 1.255159
H 0.712516 -1.930132 0.627662
H 0.839537 -1.467447 -1.102336
H 0.761174 1.970118 0.562284
H 0.875834 1.446833 -1.151176
H -1.786312 0.991520 1.320405
H -1.809308 -0.863326 1.351695