32
H20 C10 N2
C 1.463615 -3.263467 0.167827
C 2.847381 -2.645556 0.001117
C 3.106567 -1.406865 0.878496
C 2.326965 -0.202551 0.350465
C 4.620542 -1.129744 1.004045
C 4.943857 0.244619 1.587223
N 5.238140 -2.161902 1.838317
C 6.622825 -2.452894 1.525531
C 7.200595 -3.461289 2.509413
C 8.665594 -3.780206 2.194291
C 9.247359 -4.750622 3.117261
N 9.697686 -5.520426 3.853579
H 1.344590 -4.146605 -0.478900
H 0.659467 -2.557493 -0.091822
H 1.298195 -3.587436 1.208330
H 3.005601 -2.362345 -1.054964
H 3.600338 -3.422416 0.214968
H 2.746477 -1.627532 1.902017
H 2.736716 0.138903 -0.615293
H 2.349041 0.647245 1.047587
H 1.269277 -0.458778 0.188713
H 5.038277 -1.166861 -0.027499
H 4.433202 0.384224 2.554040
H 4.648908 1.060982 0.912125
H 6.026075 0.343274 1.762592
H 4.706475 -3.026559 1.768875
H 7.209424 -1.520495 1.582877
H 6.754632 -2.833905 0.488623
H 6.608925 -4.391145 2.474562
H 7.113459 -3.061039 3.531358
H 9.282327 -2.868415 2.238376
H 8.767540 -4.188372 1.176137