39
H25 C12 N1 O1
C 0.671134 0.116729 0.300287
C 2.159371 -0.135717 0.069365
C 2.907922 1.156170 -0.251017
C 2.764115 -0.842570 1.275745
O 4.104930 -1.160991 1.023070
C 4.757791 -1.768722 2.100461
C 6.194685 -2.059733 1.707012
N 6.885291 -2.716120 2.799154
C 8.336285 -2.765519 2.746108
C 9.005370 -3.247940 1.445229
C 10.472735 -2.785116 1.559780
C 10.500976 -1.750647 2.712215
C 9.034582 -1.421191 3.013466
C 8.771364 -0.843188 4.393214
H 0.212180 0.596446 -0.578055
H 0.512835 0.783869 1.164450
H 0.125268 -0.820264 0.494464
H 2.267348 -0.821667 -0.789748
H 2.817455 1.876112 0.580462
H 2.502892 1.635847 -1.156042
H 3.977836 0.962422 -0.414541
H 2.187393 -1.763128 1.502734
H 2.684825 -0.187970 2.170480
H 4.247070 -2.712896 2.385745
H 4.744261 -1.115345 2.996259
H 6.690920 -1.102368 1.482321
H 6.186775 -2.640564 0.762596
H 6.515703 -3.656156 2.919868
H 8.644809 -3.446506 3.560694
H 8.519087 -2.758806 0.586232
H 8.901558 -4.334324 1.300645
H 10.821916 -2.343588 0.614424
H 11.144660 -3.628906 1.777274
H 11.090964 -0.854486 2.467264
H 10.957199 -2.196306 3.612661
H 8.679179 -0.701436 2.252920
H 9.127312 -1.529428 5.180519
H 7.693390 -0.684318 4.550321
H 9.282444 0.122761 4.532852