21
H10 C6 N1 O1 F3
O 4.599885 -1.133631 0.553764
C 4.161450 0.133381 0.977345
C 2.782849 -0.034252 1.582784
C 2.688849 -0.803536 2.913872
C 1.820951 0.362897 3.414269
N 2.244651 1.161254 2.254523
C 1.239882 1.970044 1.626629
C 1.801935 2.939409 0.613275
F 2.789986 3.690289 1.108644
F 2.292174 2.317919 -0.473412
F 0.846764 3.773052 0.177440
H 5.487607 -1.039774 0.192628
H 4.115542 0.852480 0.139361
H 4.826639 0.568398 1.748915
H 2.089623 -0.437369 0.817632
H 3.658186 -0.879742 3.426615
H 2.213828 -1.791767 2.881532
H 2.065740 0.805941 4.393310
H 0.741133 0.122523 3.396299
H 0.747036 2.583468 2.395987
H 0.451772 1.384116 1.108469