39
H25 C12 N1 O1
C 1.618022 -1.315301 -0.681773
C 2.385902 -0.361821 -0.151152
C 3.000675 0.780843 -0.904565
C 4.530666 0.785493 -0.836461
C 5.161353 1.967817 -1.567223
C 6.684275 1.974448 -1.481161
C 7.386939 3.050728 -2.316117
C 6.928401 4.461976 -1.949761
N 8.839474 2.917377 -2.153843
C 9.627397 2.901358 -3.379031
C 9.575896 4.232984 -4.117403
C 11.060861 2.542038 -3.002796
O 11.835492 2.414361 -4.159345
C 13.178207 2.132105 -3.899691
H 1.207035 -2.125149 -0.071200
H 1.368414 -1.320641 -1.749137
H 2.612000 -0.400940 0.923238
H 2.627334 1.730863 -0.480864
H 2.673739 0.753750 -1.957826
H 4.914241 -0.159034 -1.260817
H 4.849195 0.797936 0.221188
H 4.754500 2.903383 -1.147772
H 4.854454 1.947344 -2.628495
H 7.065245 0.990223 -1.807387
H 6.993002 2.092918 -0.425648
H 7.116208 2.866121 -3.375953
H 7.087972 4.647656 -0.874574
H 5.861955 4.618669 -2.174203
H 7.500510 5.216424 -2.508360
H 9.034097 2.058367 -1.644020
H 9.271209 2.113241 -4.079828
H 9.903246 5.052058 -3.455998
H 8.560423 4.461025 -4.474021
H 10.241992 4.200706 -4.991188
H 11.065616 1.591927 -2.427308
H 11.470712 3.326396 -2.332434
H 13.702623 2.050143 -4.862471
H 13.302877 1.177727 -3.351062
H 13.661820 2.930882 -3.303798