25
H15 C8 N1 O1
C 1.908951 -3.620794 -1.418236
C 2.475494 -2.864219 -0.660166
C 3.205058 -1.976388 0.281657
C 2.254231 -1.387054 1.325223
N 4.371621 -2.622176 0.877702
C 4.064422 -3.771754 1.706048
C 5.426780 -2.888355 -0.083661
C 6.827590 -3.010161 0.530581
C 7.224506 -1.775515 1.323878
O 7.757974 -3.303399 -0.492220
H 1.399993 -4.285541 -2.096857
H 3.592510 -1.135339 -0.316413
H 1.718524 -2.165190 1.887562
H 1.503778 -0.752821 0.831719
H 2.828062 -0.769668 2.031867
H 3.330698 -3.509535 2.480452
H 4.969923 -4.114357 2.226107
H 3.663635 -4.630399 1.125822
H 5.457478 -2.049154 -0.800284
H 5.233485 -3.808397 -0.676811
H 6.857079 -3.886619 1.197861
H 7.217782 -0.882227 0.675540
H 8.236408 -1.894072 1.739535
H 6.520746 -1.596496 2.149234
H 7.804321 -2.532929 -1.072430