39
H25 C12 N1 O1
C 7.082763 -2.572320 -9.212934
C 7.139155 -2.207923 -7.930475
C 6.698327 -0.881725 -7.386507
C 7.802793 -0.124228 -6.623706
C 8.984773 0.203304 -7.527432
N 8.275954 -0.893097 -5.475125
C 7.398795 -0.881048 -4.322104
C 7.781080 -1.890178 -3.234929
O 6.833731 -1.802248 -2.186852
C 9.215885 -1.737474 -2.709943
C 10.264751 -2.535595 -3.486125
C 11.719160 -2.223661 -3.113737
C 12.014512 -2.490392 -1.637528
C 12.678361 -3.006597 -4.009891
H 7.418061 -3.560819 -9.542163
H 6.694730 -1.896581 -9.984079
H 7.542417 -2.910764 -7.191612
H 5.845470 -1.043130 -6.704569
H 6.327530 -0.239237 -8.201573
H 7.354184 0.836505 -6.290680
H 9.490700 -0.716235 -7.862425
H 9.723144 0.825178 -6.996234
H 8.655013 0.756873 -8.419432
H 9.187225 -0.530857 -5.202279
H 6.374412 -1.125250 -4.642261
H 7.343824 0.125349 -3.846663
H 7.665942 -2.906901 -3.647589
H 6.922724 -0.926721 -1.789717
H 9.202426 -2.073124 -1.661102
H 9.489662 -0.665240 -2.690752
H 10.132163 -2.364650 -4.565904
H 10.077795 -3.614301 -3.329262
H 11.884726 -1.146287 -3.302204
H 11.812901 -3.545288 -1.382925
H 11.402541 -1.862641 -0.971885
H 13.071364 -2.286533 -1.402339
H 12.559101 -4.092897 -3.857578
H 13.728563 -2.753200 -3.793997
H 12.493354 -2.797543 -5.075738