24
H15 C7 N1 O1
C 1.029673 0.022829 0.007183
C 2.530136 -0.064696 -0.239438
C 3.011466 0.881218 -1.331717
N 4.447976 0.792731 -1.518575
C 4.962113 1.656053 -2.561795
C 6.467261 1.564602 -2.606264
O 7.108735 1.895691 -3.824883
C 7.191767 0.546869 -3.380508
C 6.536583 -0.512423 -4.221628
H 0.713379 -0.672538 0.799591
H 0.458626 -0.226328 -0.901976
H 0.734297 1.038416 0.317182
H 2.800033 -1.098877 -0.518181
H 3.083499 0.160497 0.687686
H 2.761605 1.920576 -1.052300
H 2.449042 0.674254 -2.269751
H 4.695730 -0.172018 -1.738743
H 4.680656 2.697833 -2.330490
H 4.547020 1.440360 -3.567914
H 6.963720 1.954879 -1.706317
H 8.189303 0.273018 -3.008521
H 5.522824 -0.229224 -4.535665
H 6.479371 -1.455938 -3.657164
H 7.135173 -0.700464 -5.126512