30
H18 C9 N1 O1 F1
C 0.881170 -0.540485 0.162534
C 2.284238 0.049180 0.100813
C 2.965507 0.125250 1.453623
F 3.003122 -1.165465 2.005551
C 4.376253 0.682830 1.391519
N 4.995597 0.814688 2.700161
C 5.785234 -0.360258 3.042255
C 6.299873 -0.271087 4.463583
O 7.061534 0.896882 4.645379
C 6.302394 2.038392 4.352587
C 5.746324 2.052232 2.925978
C 4.888157 3.300702 2.757150
H 0.422073 -0.570283 -0.836856
H 0.226762 0.057635 0.816837
H 0.901039 -1.567934 0.555218
H 2.248180 1.070622 -0.311537
H 2.918331 -0.544283 -0.579760
H 2.370168 0.735925 2.153956
H 4.301350 1.663120 0.902651
H 4.985996 0.048625 0.716046
H 6.654273 -0.472274 2.354708
H 5.161735 -1.257602 2.933564
H 6.949122 -1.128914 4.691010
H 5.444589 -0.285703 5.169308
H 6.956609 2.910377 4.499053
H 5.450787 2.124256 5.060051
H 6.614887 2.111585 2.230758
H 3.973863 3.221782 3.366612
H 4.591371 3.477549 1.714391
H 5.448944 4.188817 3.086726