16
H9 C4 N1 O2
C 1.083860 -0.179250 -0.022618
C 2.596336 -0.176944 0.124874
O 3.134110 1.129500 0.039569
C 3.043763 -0.848858 1.423711
N 4.481315 -0.844781 1.557408
C 5.257134 -1.940958 1.666436
O 6.472607 -1.939390 1.724036
H 0.793054 0.321536 -0.957576
H 0.608623 0.354456 0.817683
H 0.688122 -1.205943 -0.040159
H 3.048981 -0.731703 -0.713645
H 2.671546 1.678329 0.686470
H 2.688935 -1.889935 1.452451
H 2.579725 -0.322112 2.277766
H 4.950456 0.053164 1.467428
H 4.658562 -2.881773 1.707055