39
H25 C12 N1 O1
C 6.150603 7.405372 -2.635678
C 6.084977 6.389084 -1.773560
C 7.056691 5.248181 -1.703616
C 7.761734 5.164773 -0.344994
C 8.786743 4.023467 -0.228245
C 10.218381 4.467375 -0.554278
C 10.433563 5.084079 -1.933491
C 11.901894 5.380050 -2.217618
N 8.739658 3.485433 1.127450
C 9.484584 2.260243 1.346051
C 8.956336 1.466738 2.549622
C 7.627412 0.783246 2.272102
O 8.772725 2.263740 3.698456
C 9.912233 2.937936 4.145753
H 5.412132 8.212920 -2.626649
H 6.946375 7.466741 -3.387107
H 5.272695 6.372395 -1.033998
H 7.788673 5.336535 -2.520480
H 6.512519 4.300908 -1.868899
H 6.988950 5.026206 0.430441
H 8.248497 6.128652 -0.115508
H 8.507694 3.235550 -0.966919
H 10.888207 3.595770 -0.461053
H 10.533848 5.183727 0.226249
H 9.854910 6.018555 -2.022243
H 10.039459 4.402123 -2.707308
H 12.318257 6.076855 -1.471832
H 12.036815 5.835099 -3.211154
H 12.508656 4.460319 -2.185693
H 7.767524 3.338723 1.387680
H 10.550561 2.491577 1.509746
H 9.452682 1.578864 0.468249
H 9.713219 0.683531 2.765474
H 6.845915 1.509503 1.997472
H 7.286944 0.245634 3.169126
H 7.730513 0.059954 1.450166
H 9.685486 3.354672 5.138187
H 10.193371 3.773368 3.478886
H 10.783456 2.261212 4.247253