33
H21 C10 N1 O1
C 6.022713 7.638012 7.901522
C 5.648929 6.266851 7.384751
O 6.166035 6.102207 6.090455
C 5.876481 4.858141 5.522457
C 6.486832 4.795934 4.135048
N 6.231601 3.503005 3.532518
C 6.713403 3.336136 2.167200
C 6.141193 2.046357 1.569899
C 4.621368 2.018273 1.443633
C 8.229875 3.314040 2.129971
C 8.945787 3.580312 0.836057
C 9.023418 4.580136 1.956065
H 5.625223 7.785029 8.916743
H 5.611158 8.424610 7.250647
H 7.116638 7.755446 7.936979
H 4.546027 6.147113 7.375378
H 6.045797 5.480430 8.059017
H 4.778251 4.700836 5.461546
H 6.282970 4.030979 6.139531
H 7.571785 4.955417 4.230634
H 6.094191 5.643231 3.531812
H 5.226989 3.337456 3.544486
H 6.382716 4.182480 1.519820
H 6.588023 1.913494 0.571743
H 6.482836 1.195054 2.184116
H 4.252738 2.889748 0.878153
H 4.117405 2.014620 2.423522
H 4.290509 1.112330 0.913096
H 8.669291 2.551604 2.783503
H 8.334084 3.840387 -0.033722
H 9.833725 2.987052 0.602856
H 8.464162 5.513491 1.840319
H 9.964958 4.680289 2.502663