35
H23 C10 N1 O1
C 1.110659 -0.193056 -0.430736
C 2.625036 -0.065241 -0.316352
C 3.111893 1.381810 -0.314473
C 4.627451 1.518823 -0.200341
C 5.109097 2.967095 -0.210462
C 6.623093 3.079281 -0.065679
N 7.143567 4.423096 -0.272737
C 6.681183 5.357620 0.734777
C 8.589383 4.433450 -0.406805
C 9.102196 5.639604 -1.178324
O 10.488822 5.510184 -1.321893
C 11.075629 6.571261 -2.013486
H 0.792213 -1.247154 -0.429145
H 0.741086 0.265572 -1.362567
H 0.603340 0.309908 0.408856
H 3.105120 -0.607274 -1.150103
H 2.968927 -0.563725 0.607076
H 2.632430 1.925823 0.519588
H 2.769830 1.882217 -1.238640
H 5.106415 0.967647 -1.029531
H 4.968143 1.026544 0.728509
H 4.601733 3.515541 0.600663
H 4.811208 3.455755 -1.154678
H 7.090687 2.421745 -0.816704
H 6.925393 2.678498 0.930620
H 5.587728 5.465814 0.701335
H 7.106485 6.355942 0.561297
H 6.962203 5.045344 1.766011
H 8.898174 3.536700 -0.965659
H 9.105123 4.387204 0.578275
H 8.857828 6.586180 -0.655737
H 8.598937 5.678209 -2.166132
H 12.156883 6.382193 -2.077637
H 10.920087 7.539901 -1.498337
H 10.676089 6.668220 -3.042339