21
H10 C6 N1 O1 F3
O -2.104680 0.153768 0.542311
C -0.959179 0.353023 -0.242381
C 0.145274 1.190098 0.408133
C 1.375449 0.748319 -0.366339
N 1.162178 -0.687007 -0.527252
C 1.976209 -1.357713 -1.493595
C 2.424657 -2.718691 -1.008162
F 3.152295 -2.643579 0.112405
F 1.388940 -3.531626 -0.743794
F 3.179223 -3.336385 -1.929051
C -0.267240 -0.987549 -0.512563
H -2.562744 0.998583 0.618822
H -1.227603 0.820432 -1.209538
H 0.229063 0.900050 1.468175
H -0.039446 2.272469 0.350884
H 2.318105 0.951148 0.166417
H 1.425770 1.275298 -1.342465
H 2.895117 -0.782699 -1.679695
H 1.476275 -1.512291 -2.471664
H -0.533642 -1.694295 0.293379
H -0.599351 -1.435932 -1.466306