27
H16 C7 N1 O2 F1
C 1.210841 -0.477919 0.169692
O 2.579543 -0.215345 0.083092
C 2.911441 0.664953 -0.952054
C 4.416123 0.879265 -0.931998
N 4.865726 1.737326 -2.010925
C 4.448763 3.128411 -1.891090
C 3.427634 3.531957 -2.952393
O 3.066158 4.886674 -2.862128
C 6.255832 1.562893 -2.377847
C 6.505173 1.970169 -3.818444
F 7.838703 1.750409 -4.128098
H 1.048423 -1.176940 1.002620
H 0.817409 -0.940343 -0.756932
H 0.623457 0.441089 0.364657
H 2.373045 1.627141 -0.827770
H 2.614624 0.254723 -1.939363
H 4.891939 -0.106658 -1.042948
H 4.705845 1.267782 0.068632
H 5.318087 3.804644 -1.972305
H 4.015276 3.314086 -0.890007
H 2.546888 2.864084 -2.887698
H 3.866009 3.382158 -3.951793
H 2.613857 5.016506 -2.020180
H 6.518728 0.498584 -2.282885
H 6.949506 2.130695 -1.720596
H 6.292106 3.037778 -3.988255
H 5.880801 1.369768 -4.499315