35
H22 C10 N1 O1 F1
C 1.109883 -0.429565 -0.186343
C 2.610404 -0.129075 -0.094585
N 3.357965 -1.368073 -0.372445
C 4.778587 -1.276572 -0.649604
C 3.139619 -2.408406 0.635108
C 2.831284 -3.766297 0.013214
C 2.666646 -4.868728 1.053786
C 2.348887 -6.205710 0.424905
F 2.205670 -7.177496 1.407892
C 2.984398 1.091085 -0.997430
C 2.885498 0.778943 -2.494473
C 2.077865 2.280523 -0.671551
O 4.285241 1.570229 -0.667159
H 0.832930 -1.310845 0.406386
H 0.813494 -0.630921 -1.227240
H 0.507140 0.405525 0.193900
H 2.836233 0.221924 0.937599
H 4.992572 -0.773080 -1.603522
H 5.182431 -2.293132 -0.767877
H 5.362327 -0.785981 0.158298
H 2.313891 -2.129430 1.304329
H 4.025434 -2.497130 1.296063
H 3.638530 -4.036453 -0.689593
H 1.911936 -3.672802 -0.589763
H 1.857449 -4.607021 1.756652
H 3.590318 -4.968028 1.648790
H 3.155512 -6.529229 -0.253489
H 1.407552 -6.163999 -0.147418
H 1.848461 0.561191 -2.787335
H 3.497751 -0.085193 -2.787796
H 3.223512 1.653430 -3.071123
H 1.050025 2.138269 -1.029887
H 2.491165 3.174151 -1.161501
H 2.051336 2.469557 0.413153
H 4.941235 0.972850 -1.035611