31
H20 C9 N2
C 5.360439 -1.643770 -0.974032
C 4.678822 -0.353857 -1.425550
C 5.147869 0.810479 -0.549666
C 3.125334 -0.441498 -1.436139
C 2.522005 0.711009 -2.251025
N 2.798779 0.543403 -3.667497
C 2.378513 1.682024 -4.448931
C 2.241295 -0.700279 -4.164587
C 2.747301 -1.889011 -3.358717
N 2.525604 -1.665766 -1.949661
C 2.463547 -2.842493 -1.121046
H 6.452090 -1.501533 -0.925107
H 5.170273 -2.476463 -1.665793
H 5.021735 -1.950815 0.029439
H 4.996391 -0.148603 -2.461752
H 4.856026 0.650596 0.502639
H 4.730462 1.777303 -0.868238
H 6.245009 0.904144 -0.578341
H 2.778501 -0.330250 -0.393391
H 2.933678 1.677096 -1.925327
H 1.425694 0.739364 -2.057185
H 2.871487 2.596961 -4.085059
H 1.278599 1.852074 -4.410602
H 2.657469 1.542581 -5.505189
H 2.516737 -0.823071 -5.224345
H 1.127364 -0.683997 -4.110974
H 3.816868 -2.076276 -3.602101
H 2.191997 -2.788379 -3.669079
H 1.589515 -3.456241 -1.403260
H 2.333763 -2.549698 -0.067995
H 3.351767 -3.503505 -1.174669