34
H21 C10 N1 O2
C 0.928958 0.005522 0.187829
O 2.320120 -0.079236 0.091967
C 2.955893 -0.180929 1.337496
C 4.472371 -0.205164 1.183917
N 5.007392 1.085429 0.761930
C 4.929925 1.366561 -0.661148
C 5.206463 2.834758 -0.967526
C 6.586311 3.290736 -0.508600
O 5.037572 2.976518 -2.362823
C 4.834193 4.283549 -2.810834
C 5.099395 -0.585169 2.509025
C 5.291092 -2.028785 2.869655
C 6.483031 -1.173453 2.531443
H 0.519620 0.069474 -0.830344
H 0.606310 0.901660 0.753098
H 0.494737 -0.883885 0.685420
H 2.631859 -1.108844 1.851698
H 2.677464 0.673344 1.988259
H 4.714483 -1.005351 0.450725
H 5.982479 1.121640 1.052183
H 3.916573 1.133707 -1.010710
H 5.630417 0.745501 -1.261541
H 4.439722 3.439670 -0.440600
H 7.371226 2.684519 -0.989533
H 6.682762 3.191233 0.583112
H 6.765428 4.348351 -0.753164
H 4.611364 4.238734 -3.886955
H 5.720499 4.931659 -2.675373
H 3.978758 4.767338 -2.299389
H 4.849060 0.096631 3.329807
H 4.979757 -2.778651 2.136226
H 5.143408 -2.324414 3.911500
H 6.972636 -1.344271 1.567649
H 7.158002 -0.879852 3.339412