21
H13 C6 N1 O1
C 0.925536 0.016189 0.020901
C 2.444231 -0.038611 -0.126728
N 2.908806 0.960583 -1.098665
C 2.629309 0.568792 -2.476130
C 3.087737 -0.851562 -2.779535
O 2.576360 -1.762214 -1.834079
C 2.960048 -1.441693 -0.507670
C 2.489897 -2.562847 0.395586
H 0.599743 1.061020 0.133720
H 0.590710 -0.543543 0.906363
H 0.417809 -0.411354 -0.857069
H 2.896430 0.226628 0.843349
H 3.917774 1.064455 -0.992297
H 3.122007 1.276450 -3.161031
H 1.544631 0.646504 -2.661110
H 4.197801 -0.889507 -2.778897
H 2.739351 -1.179537 -3.770989
H 4.069659 -1.390731 -0.466066
H 1.402723 -2.709171 0.310790
H 2.731796 -2.340689 1.446004
H 2.982722 -3.506551 0.118243