32
H21 C9 N1 O1
C 0.920469 -0.034865 -0.422206
C 2.418301 0.185705 -0.260056
C 2.880927 0.615976 1.136054
C 2.475718 -0.381640 2.240295
C 1.190919 -0.024343 2.979310
N 4.334335 0.771888 1.101204
C 4.879096 1.629240 2.134403
C 6.405161 1.504135 2.297989
C 6.789042 0.091615 2.736649
C 7.128303 1.890989 1.013625
O 6.820955 2.449942 3.275461
H 0.675948 -0.262883 -1.471044
H 0.346652 0.860962 -0.134558
H 0.559184 -0.877482 0.187171
H 2.746687 0.956374 -0.979680
H 2.963365 -0.737454 -0.525797
H 2.393194 1.591162 1.363698
H 3.295570 -0.443884 2.973306
H 2.397064 -1.391562 1.800924
H 1.292565 0.945334 3.493873
H 0.947614 -0.781223 3.741331
H 0.327636 0.053080 2.301583
H 4.600604 1.146021 0.192674
H 4.419422 1.356100 3.100193
H 4.644937 2.703123 1.972660
H 6.446412 -0.652839 2.004132
H 6.321454 -0.149861 3.706061
H 7.880650 0.006100 2.850579
H 6.898338 1.186693 0.200553
H 8.216814 1.882127 1.176361
H 6.835932 2.903986 0.695425
H 6.409233 2.203393 4.112614