24
H14 C7 N1 O1 F1
C 0.913410 0.117373 0.036020
C 2.424278 -0.019495 -0.093442
C 2.915883 -1.461279 0.043761
O 2.271550 -2.321679 -0.880614
C 4.444350 -1.537570 -0.072726
N 5.079683 -2.807197 0.182337
C 4.861494 -3.569927 1.410970
C 5.035290 -4.859965 0.605272
F 6.303430 -5.399642 0.734586
C 4.886224 -3.998389 -0.651396
H 0.592730 1.161385 -0.100623
H 0.568970 -0.213236 1.029506
H 0.399387 -0.499423 -0.716014
H 2.926844 0.597652 0.669518
H 2.755286 0.371297 -1.073612
H 2.613557 -1.835152 1.037102
H 2.518322 -2.030502 -1.768251
H 4.874141 -0.794050 0.621236
H 4.733323 -1.212462 -1.089411
H 3.844944 -3.490645 1.840439
H 5.600246 -3.404255 2.214106
H 4.307592 -5.666760 0.764159
H 3.882103 -4.089374 -1.095870
H 5.653412 -4.160697 -1.428316