36
H24 C10 N2
C 1.034116 0.466552 0.503364
C 2.463132 0.075365 0.146130
C 2.990578 0.854817 -1.055128
N 4.405118 0.650159 -1.327746
C 4.693173 -0.707248 -1.743649
C 4.925100 1.637191 -2.262870
C 6.440475 1.800036 -2.201531
C 6.987337 2.842874 -3.190411
N 6.332234 4.146775 -3.089023
C 8.515097 3.035304 -3.059857
C 9.290689 1.717043 -3.058981
C 9.047293 3.957910 -4.156758
H 0.664823 -0.111594 1.364087
H 0.347118 0.283550 -0.339036
H 0.963287 1.535340 0.763140
H 2.500852 -1.007962 -0.052424
H 3.134848 0.261440 1.001439
H 2.841817 1.929513 -0.858473
H 2.366347 0.614082 -1.948686
H 4.419688 -1.427189 -0.959222
H 5.767723 -0.836585 -1.934387
H 4.148661 -0.992978 -2.672640
H 4.459036 2.602776 -2.014776
H 4.619593 1.405978 -3.310836
H 6.920744 0.831491 -2.402811
H 6.722358 2.087108 -1.171787
H 6.792717 2.468358 -4.213890
H 6.331789 4.452619 -2.114562
H 5.353572 4.079910 -3.361092
H 8.686301 3.530341 -2.084394
H 9.049677 1.116799 -3.953270
H 9.081202 1.101142 -2.172394
H 10.375103 1.909197 -3.072836
H 8.951168 3.479798 -5.146962
H 10.113142 4.187373 -3.999718
H 8.487390 4.902587 -4.183228