17
H8 C6 O3
C 1.084348 0.020182 0.131290
C 2.363947 -0.086948 -0.200233
O 3.113872 0.982331 -0.624101
C 4.382371 0.587948 -0.886270
O 5.237104 1.323978 -1.268376
O 4.519982 -0.711350 -0.656542
C 3.275002 -1.303726 -0.206421
C 3.489470 -1.880448 1.183624
C 2.844156 -2.349065 -1.222999
H 0.568141 0.980522 0.078552
H 0.535622 -0.862939 0.461462
H 3.836982 -1.102444 1.878643
H 4.233703 -2.689119 1.146407
H 2.542639 -2.291921 1.561101
H 2.734092 -1.899621 -2.220479
H 1.877969 -2.778470 -0.922142
H 3.588168 -3.157330 -1.272356