39
H25 C12 N1 O1
C 9.037089 3.500981 1.056058
C 8.390901 2.158569 0.733249
C 7.241539 1.809917 1.675838
C 6.680968 0.392914 1.525394
C 6.117251 0.120891 0.129176
N 5.689601 0.155823 2.577950
C 5.499764 -1.227044 3.001895
C 4.076441 -1.419780 3.510605
C 6.494007 -1.594298 4.099153
O 7.803543 -1.542103 3.604483
C 8.800096 -1.578228 4.589992
C 10.148749 -1.477107 3.935665
C 10.654217 -0.132412 3.492146
C 11.283583 -0.822182 4.671665
H 9.855875 3.734740 0.357782
H 9.455642 3.506478 2.075894
H 8.303059 4.321353 0.995933
H 9.153285 1.360956 0.786086
H 8.033231 2.169670 -0.310015
H 6.420242 2.540400 1.546157
H 7.581903 1.915555 2.720305
H 7.508220 -0.306299 1.713995
H 5.324604 0.848343 -0.118577
H 5.679778 -0.888894 0.074827
H 6.891158 0.185394 -0.651162
H 4.796762 0.545406 2.279967
H 5.664672 -1.934993 2.162192
H 3.865770 -0.728721 4.343322
H 3.913430 -2.447899 3.865890
H 3.348681 -1.218083 2.709311
H 6.269650 -2.608607 4.489631
H 6.369046 -0.879081 4.937564
H 8.727543 -2.515609 5.179199
H 8.666330 -0.739610 5.304070
H 10.405993 -2.329086 3.297797
H 10.016425 0.734866 3.688389
H 11.222522 -0.077079 2.560003
H 11.078971 -0.419129 5.668222
H 12.284077 -1.245823 4.552308