35
H23 C10 N1 O1
C 1.028289 0.208265 0.229880
C 2.539820 0.017066 0.199958
C 2.975379 -1.238361 -0.553065
C 4.490152 -1.411438 -0.599791
C 4.983790 -2.729678 -1.202637
C 4.512461 -2.918583 -2.642564
N 6.444091 -2.748454 -1.132952
C 7.049006 -4.065315 -1.216420
C 8.577221 -4.005168 -1.225031
C 9.152359 -3.362331 0.034714
C 9.149054 -5.408762 -1.438653
O 10.553280 -5.440253 -1.519225
H 0.746890 1.118367 0.782186
H 0.528027 -0.645142 0.716394
H 0.616854 0.295786 -0.789044
H 2.927103 -0.027012 1.233080
H 3.014749 0.899207 -0.264418
H 2.567821 -1.197767 -1.577740
H 2.518797 -2.125156 -0.076688
H 4.886445 -1.337800 0.429383
H 4.945586 -0.578457 -1.165580
H 4.553659 -3.556862 -0.593433
H 4.839179 -2.070334 -3.266465
H 3.416284 -2.991683 -2.698876
H 4.919662 -3.840838 -3.083581
H 6.722381 -2.322898 -0.250700
H 6.714194 -4.551536 -2.147278
H 6.719288 -4.732530 -0.387004
H 8.873068 -3.391288 -2.096845
H 8.788904 -3.879554 0.939415
H 8.879925 -2.298686 0.115043
H 10.250160 -3.425614 0.028750
H 8.687810 -5.856940 -2.340808
H 8.873159 -6.052718 -0.586212
H 10.815133 -4.895823 -2.271324