21
H14 C5 N2
C 5.272086 -7.262744 -1.563352
C 4.676996 -5.875268 -1.734051
N 5.114414 -4.981123 -0.676657
C 4.629247 -3.622785 -0.812978
C 5.065430 -2.732626 0.357173
C 4.514435 -1.321355 0.191948
N 6.512340 -2.669957 0.552990
H 4.910654 -7.946600 -2.346027
H 5.002524 -7.683298 -0.581957
H 6.372315 -7.230734 -1.627401
H 3.575120 -5.938487 -1.701241
H 4.929078 -5.486408 -2.745528
H 6.134119 -4.964984 -0.672477
H 3.526183 -3.648467 -0.850362
H 4.961215 -3.143715 -1.764019
H 4.638483 -3.172633 1.275559
H 4.928747 -0.845165 -0.712925
H 4.787446 -0.697512 1.056034
H 3.417615 -1.325880 0.097797
H 6.966027 -2.395135 -0.320299
H 6.881729 -3.590514 0.787452