24
H12 C7 N1 O1 F3
O 1.028582 -0.444873 -0.212413
C 2.372834 -0.104899 -0.017511
C 3.006019 -1.150333 0.884510
N 2.387852 -1.098319 2.192021
C 2.900020 -2.076843 3.117019
C 2.215856 -2.170051 4.492484
C 2.439106 -3.696963 4.453922
C 2.629953 -3.596100 2.925711
C 3.076477 -0.007498 -1.366606
F 3.099373 -1.172682 -2.022361
F 2.454594 0.875606 -2.161365
F 4.343859 0.400637 -1.232873
H 0.548465 0.333613 -0.520410
H 2.483277 0.886122 0.458237
H 4.082587 -0.937112 0.980638
H 2.912418 -2.140058 0.391384
H 1.383672 -1.236225 2.078949
H 3.983777 -1.908003 3.239824
H 1.145867 -1.920118 4.404374
H 2.647509 -1.593478 5.324369
H 1.626296 -4.338302 4.824576
H 3.372068 -3.984234 4.962354
H 1.678911 -3.749039 2.389318
H 3.410219 -4.213190 2.455050