36
H23 C10 N1 O2
C 13.759712 1.592621 3.964194
C 13.519685 1.389853 2.484767
O 12.138744 1.341334 2.237039
C 11.813263 1.057440 0.905216
C 10.301398 1.127214 0.710897
C 9.900841 0.368316 -0.555389
N 9.827644 2.510888 0.703016
C 8.658875 2.854188 1.513606
C 7.484593 1.873829 1.407013
C 9.109633 3.147695 2.956740
C 7.985493 3.234928 3.979037
O 9.791571 4.391979 2.945238
C 11.133757 4.345603 3.327792
H 14.839383 1.610946 4.175004
H 13.307131 0.774702 4.545494
H 13.324843 2.542898 4.308079
H 14.000319 0.449132 2.146284
H 13.985498 2.210358 1.901287
H 12.180792 0.045124 0.638810
H 12.304443 1.774579 0.215278
H 9.866458 0.609567 1.581825
H 10.365631 0.829027 -1.444011
H 8.811011 0.388756 -0.697466
H 10.219982 -0.684576 -0.517869
H 9.681601 2.812915 -0.256361
H 8.305937 3.826052 1.130568
H 7.709035 0.895246 1.860538
H 7.230811 1.707985 0.348933
H 6.585938 2.272147 1.900043
H 9.808390 2.346748 3.260493
H 7.239654 3.989105 3.679449
H 8.400178 3.535484 4.953314
H 7.473107 2.271093 4.113155
H 11.546117 5.361634 3.228547
H 11.714260 3.654053 2.695407
H 11.258352 4.033826 4.385062