32
H21 C9 N1 O1
C 8.675961 1.432771 -3.537592
C 7.418103 1.986849 -2.878502
C 6.721242 0.963770 -1.984360
C 5.457538 1.469795 -1.267256
C 4.297543 1.693266 -2.233194
N 5.711996 2.716765 -0.555661
C 6.580365 2.655165 0.612096
C 5.871490 2.144835 1.868927
C 7.204499 4.021153 0.864358
O 8.115054 4.332189 -0.151973
C 8.673855 5.604824 -0.027487
H 9.166610 2.188251 -4.171453
H 8.449191 0.561170 -4.174040
H 9.410339 1.106421 -2.782397
H 6.721089 2.336921 -3.659235
H 7.667597 2.868590 -2.267268
H 7.445135 0.602918 -1.232819
H 6.442977 0.072060 -2.573439
H 5.147365 0.658083 -0.572381
H 4.520588 2.506787 -2.941265
H 3.382159 1.969119 -1.684706
H 4.081825 0.780528 -2.808833
H 4.825843 3.141302 -0.285661
H 7.414446 1.974952 0.376698
H 5.086533 2.852590 2.185549
H 6.570975 2.015100 2.709411
H 5.391836 1.172665 1.678789
H 7.716568 4.022123 1.848758
H 6.401439 4.787027 0.920661
H 9.383744 5.749070 -0.854588
H 9.221571 5.727558 0.928083
H 7.907162 6.402984 -0.081762