23
H14 C7 O2
C 1.220157 0.419729 -1.319077
C 0.641472 0.085311 0.055416
C 1.748171 -0.269779 1.039628
C -0.283922 1.201911 0.573286
C -1.642623 0.813686 0.000164
C -1.582273 -0.710774 0.070365
C -2.397120 -1.433910 -0.993403
O -3.766644 -1.132664 -0.912553
O -0.218123 -1.057518 -0.082415
H 1.948951 1.242158 -1.250782
H 0.425531 0.719488 -2.019605
H 1.729668 -0.461269 -1.738678
H 2.406836 0.595268 1.213257
H 2.362911 -1.097681 0.653374
H 1.318149 -0.578990 2.004451
H 0.056699 2.200918 0.265337
H -0.316323 1.179551 1.674540
H -1.736654 1.140767 -1.048349
H -2.491537 1.229239 0.559386
H -1.934452 -1.047996 1.068726
H -2.205543 -2.521646 -0.920455
H -2.048526 -1.107469 -1.986663
H -4.094316 -1.465660 -0.068549