20
H11 C5 N1 O1 F2
C 0.972575 -0.081743 0.163948
C 2.470707 -0.016133 0.033715
F 2.965780 0.853052 0.968562
F 3.004404 -1.240706 0.369063
C 2.985440 0.370965 -1.340127
N 4.427921 0.344712 -1.388764
C 4.979751 0.796168 -2.649223
C 6.502132 0.788325 -2.606130
O 7.077193 1.269211 -3.793281
H 0.710461 -0.364081 1.193155
H 0.563740 -0.827415 -0.530655
H 0.533370 0.898830 -0.064136
H 2.627020 1.391254 -1.550237
H 2.497839 -0.298093 -2.079506
H 4.747455 -0.604423 -1.200104
H 4.639256 1.827359 -2.843505
H 4.640504 0.183781 -3.515136
H 6.857052 -0.233706 -2.363583
H 6.840521 1.445297 -1.789657
H 6.849496 0.655937 -4.501939