27
H17 C8 N1 O1
C -2.488615 0.077213 0.174888
N -1.057806 0.041399 0.363250
C -0.405391 1.211446 -0.202212
C 1.091427 1.214110 0.092282
C 1.785352 -0.067565 -0.391436
C 1.935614 -0.092822 -1.918682
C 2.726269 -1.275796 -2.462553
O 3.003000 -1.154011 -3.839047
C 1.016882 -1.268341 0.182731
C -0.474277 -1.197516 -0.125873
H -2.909357 0.994755 0.615576
H -2.961447 -0.784902 0.671167
H -2.786411 0.052620 -0.898381
H -0.867752 2.113101 0.231297
H -0.578046 1.271515 -1.302254
H 1.229152 1.305533 1.182822
H 1.553750 2.101778 -0.368782
H 2.805027 -0.082691 0.031217
H 2.453139 0.827587 -2.238378
H 0.946327 -0.076451 -2.409059
H 2.198402 -2.225135 -2.250412
H 3.702036 -1.336005 -1.952265
H 2.158639 -1.125718 -4.304009
H 1.142094 -1.273653 1.278565
H 1.424159 -2.221805 -0.186741
H -0.992315 -2.041926 0.356927
H -0.642703 -1.314061 -1.222449