20
H12 C6 O2
C 4.773660 -0.704467 -4.066955
O 4.483361 -1.371993 -2.874111
C 4.662011 -0.574509 -1.738499
C 4.235875 -1.370227 -0.532990
O 4.831987 -1.033515 0.707555
C 5.105886 -2.328555 0.165070
C 4.466535 -3.469267 0.919747
C 6.529940 -2.575732 -0.269865
H 4.609556 -1.404665 -4.898300
H 5.825419 -0.358866 -4.101975
H 4.121457 0.178151 -4.217336
H 4.048418 0.347582 -1.802338
H 5.714172 -0.248565 -1.631189
H 3.153035 -1.556487 -0.485451
H 3.437420 -3.220471 1.216114
H 5.045195 -3.698186 1.828757
H 4.441905 -4.376563 0.296625
H 6.975286 -1.698033 -0.755150
H 6.568362 -3.420869 -0.973967
H 7.149171 -2.834402 0.603527