26
H17 C7 N1 O1
C 0.792081 2.125164 1.228962
N 2.227794 2.250268 1.381331
C 2.844900 3.534223 1.006484
C 2.380579 4.059979 -0.363633
C 2.488789 4.568741 2.083425
C 4.379161 3.350114 1.027735
C 5.091386 2.732625 -0.183530
C 4.701812 1.297158 -0.515037
O 6.492956 2.829942 0.010960
H 0.480186 1.128019 1.576628
H 0.416240 2.243922 0.192564
H 0.263419 2.860900 1.854959
H 2.670897 1.500906 0.858825
H 1.321827 4.360533 -0.336744
H 2.492455 3.297539 -1.150461
H 2.965340 4.944949 -0.660505
H 1.399943 4.707193 2.167136
H 2.928204 5.549397 1.844226
H 2.868145 4.246702 3.065868
H 4.631120 2.753613 1.924049
H 4.842371 4.339530 1.167644
H 4.890369 3.358128 -1.068058
H 4.818976 0.641907 0.364978
H 5.353676 0.914875 -1.314898
H 3.662050 1.222356 -0.867949
H 6.710944 2.303216 0.790153