30
H19 C9 N1 O1
C 2.820170 1.437011 -0.583532
C 3.967783 1.378565 0.426783
C 4.196767 2.719435 1.131924
C 4.547784 3.864155 0.208188
C 5.482403 4.948916 0.666040
C 5.936805 3.949747 -0.365087
N 3.776734 0.338746 1.438234
C 4.059111 -1.034034 1.034583
C 3.199669 -1.993531 1.849112
C 5.538637 -1.377605 1.226838
O 6.428175 -0.612459 0.446978
H 3.026649 2.143778 -1.402014
H 1.885687 1.753769 -0.088921
H 2.644547 0.449482 -1.038827
H 4.896922 1.130724 -0.106624
H 5.011705 2.574725 1.860292
H 3.295165 2.975721 1.718970
H 3.741301 4.189746 -0.457368
H 5.899563 4.866211 1.674455
H 5.287341 5.974167 0.339771
H 6.656601 3.187131 -0.050584
H 6.058097 4.288895 -1.397464
H 2.821880 0.399056 1.788543
H 3.823705 -1.196643 -0.040778
H 3.393096 -1.864252 2.926792
H 3.406632 -3.041177 1.585382
H 2.129760 -1.803905 1.670727
H 5.681851 -2.459495 1.036448
H 5.804261 -1.188071 2.279650
H 6.258987 -0.819116 -0.480033