39
H25 C12 N1 O1
C 3.000909 1.189285 -6.632672
C 2.620972 2.565855 -7.164165
C 1.372201 3.191702 -6.549924
C 1.401409 3.317879 -5.018348
N 0.989472 2.100516 -4.337474
C 0.341266 2.267264 -3.034168
C 0.824357 1.183087 -2.076909
C -1.187656 2.225778 -3.161158
C -1.789086 3.255661 -4.112075
C -3.295765 3.173129 -4.207347
C -4.000441 3.662252 -5.441526
C -3.930557 2.186241 -5.148813
O 1.236953 4.463752 -7.154248
C -0.067944 4.961894 -7.195150
H 3.813642 0.755915 -7.235027
H 2.150271 0.490066 -6.665960
H 3.363454 1.233372 -5.593580
H 2.456455 2.512983 -8.252593
H 3.456892 3.270120 -7.010477
H 0.491738 2.565462 -6.802400
H 0.699821 4.118488 -4.746079
H 2.403914 3.672937 -4.701127
H 1.781913 1.473524 -4.242769
H 0.619277 3.248923 -2.597196
H 0.602637 0.182464 -2.484320
H 0.328501 1.267658 -1.098539
H 1.911792 1.253416 -1.915598
H -1.627763 2.358431 -2.156979
H -1.474278 1.214465 -3.502222
H -1.367621 3.111038 -5.120422
H -1.495361 4.272217 -3.793218
H -3.823767 3.333464 -3.260147
H -3.379539 4.050006 -6.255456
H -4.963834 4.166674 -5.327230
H -3.261200 1.576698 -5.764438
H -4.846250 1.677298 -4.835697
H -0.042587 5.928707 -7.718798
H -0.499081 5.131535 -6.190626
H -0.749268 4.284809 -7.746735