27
H15 C8 N1 O1 F2
C 0.770326 0.152287 -0.208965
C 2.265340 0.195834 0.104971
C 2.652415 -0.905110 1.090714
C 3.064172 0.141305 -1.210233
N 4.503500 0.208796 -1.135601
C 5.246867 1.069613 -0.222085
C 6.339484 -0.002191 -0.135219
O 7.499337 0.380734 -0.857779
C 8.568952 -0.421548 -0.712783
F 8.451037 -1.538901 -1.485002
F 9.638783 0.246608 -1.173111
C 5.373889 -0.937279 -0.891631
H 0.167250 0.260902 0.706118
H 0.494347 -0.807242 -0.678724
H 0.478273 0.958686 -0.900613
H 2.476079 1.169365 0.583807
H 2.521591 -1.903892 0.640758
H 2.021939 -0.861014 1.993389
H 3.698766 -0.817858 1.420048
H 2.699994 0.964133 -1.854033
H 2.813720 -0.793233 -1.743301
H 4.764503 1.256199 0.755120
H 5.576419 2.036470 -0.641000
H 6.623254 -0.323914 0.878600
H 8.750200 -0.749878 0.325675
H 4.956977 -1.729734 -0.245224
H 5.790548 -1.405789 -1.799225