23
H15 C6 N1 O1
C 1.071433 -0.115363 -0.068583
C 2.586183 0.016614 0.018969
C 3.034870 1.286262 0.731187
N 4.482510 1.347624 0.832329
C 5.024020 2.591232 1.358503
C 4.622540 2.819076 2.810275
C 6.547979 2.543000 1.213057
O 7.187844 3.717202 1.639471
H 0.780097 -1.038565 -0.592362
H 0.625889 0.732041 -0.614620
H 0.614189 -0.142085 0.933859
H 3.019089 0.003669 -0.997278
H 3.014379 -0.850940 0.548757
H 2.598843 1.298191 1.744564
H 2.611542 2.171188 0.204099
H 4.871506 1.196293 -0.098361
H 4.668999 3.468499 0.766531
H 4.862869 1.928664 3.414676
H 3.548086 3.029564 2.916787
H 5.176521 3.677522 3.216406
H 6.800027 2.306492 0.159576
H 6.939476 1.718259 1.830851
H 6.884358 4.440140 1.077349