24
H14 C7 N1 O1 F1
O 0.677329 -0.110242 0.086190
C 2.014358 -0.015519 0.510805
C 2.745393 0.921971 -0.435098
N 4.142790 1.079764 -0.056518
C 4.762886 2.296581 -0.571856
C 5.171034 1.981881 -2.022164
C 5.478605 0.468275 -1.989463
C 6.940081 0.140651 -2.195782
F 7.346216 0.502232 -3.474137
C 5.003387 0.020682 -0.576149
H 0.215211 -0.711369 0.679752
H 2.508538 -1.006766 0.512994
H 2.097347 0.388590 1.538444
H 2.252659 1.905419 -0.384070
H 2.611281 0.552148 -1.473593
H 5.662825 2.514609 0.029105
H 4.085665 3.157250 -0.477550
H 6.030920 2.579976 -2.359265
H 4.338341 2.193041 -2.709547
H 4.903745 -0.058097 -2.766686
H 7.126619 -0.939355 -2.075980
H 7.570244 0.689475 -1.474993
H 5.877180 -0.091609 0.090074
H 4.481835 -0.945918 -0.590811