29
H16 C8 N1 O1 F3
C 10.363673 -0.147263 5.718095
C 10.164290 -1.106606 4.554037
N 9.064813 -0.732402 3.678053
C 9.272481 0.535390 2.977235
C 8.356154 1.651397 3.462178
C 8.625835 -1.816687 2.819138
C 7.203026 -1.596948 2.309419
C 6.697832 -2.584019 1.259735
O 5.488782 -2.162806 0.693093
C 6.521059 -4.007489 1.786265
F 5.688313 -4.049373 2.838091
F 6.008516 -4.812632 0.851788
F 7.681311 -4.552766 2.176780
H 11.163244 -0.515090 6.379430
H 9.438626 -0.058239 6.309294
H 10.652829 0.860252 5.381301
H 9.944025 -2.107116 4.958893
H 11.121000 -1.203400 3.991111
H 9.120608 0.388898 1.893566
H 10.326434 0.853203 3.079608
H 7.298850 1.377976 3.320281
H 8.545655 2.585438 2.908960
H 8.509153 1.852638 4.533438
H 8.662698 -2.744485 3.406849
H 9.307152 -1.968191 1.950987
H 7.130650 -0.611703 1.824633
H 6.507752 -1.582084 3.165972
H 7.427891 -2.664096 0.438271
H 4.885499 -1.928987 1.411208