27
H17 C8 N1 O1
C 1.066639 -0.268114 -0.007939
C 2.544508 0.059764 0.168557
C 3.081637 1.143201 -0.780240
C 2.507313 2.508845 -0.420553
N 4.556306 1.120664 -0.731361
C 5.129606 0.054790 -1.561646
C 5.322965 0.650598 -2.975801
C 5.306488 2.181673 -2.754484
O 6.360153 2.895532 -3.349214
C 5.261118 2.296564 -1.217207
H 0.765625 -1.089244 0.660675
H 0.850498 -0.585777 -1.041319
H 0.416492 0.591111 0.218748
H 3.128313 -0.862066 0.018607
H 2.746595 0.382277 1.205019
H 2.724906 0.896358 -1.804943
H 2.901310 2.857058 0.548364
H 1.413022 2.446868 -0.337648
H 2.726759 3.272104 -1.180791
H 4.494485 -0.840891 -1.557238
H 6.105002 -0.237891 -1.138538
H 4.522262 0.337140 -3.661403
H 6.278516 0.341912 -3.426878
H 4.386615 2.612747 -3.179773
H 7.186454 2.560223 -2.978787
H 4.832652 3.238655 -0.856852
H 6.303491 2.254321 -0.846673