18
H10 C5 O3
O 1.047562 0.010115 -0.189343
C 2.442696 0.004956 -0.075110
C 2.885509 -0.898032 1.053451
O 2.377325 -0.424585 2.264783
C 2.810246 -1.202444 3.362797
C 2.428524 -2.662163 3.161302
C 2.921738 -3.108307 1.792030
O 2.482428 -2.209275 0.793715
H 0.818267 0.600031 -0.914851
H 2.847978 1.012257 0.138109
H 2.935447 -0.361939 -0.995490
H 4.000768 -0.868590 1.097806
H 2.343810 -0.778658 4.263262
H 3.910265 -1.111707 3.476365
H 1.332273 -2.763108 3.206106
H 2.864890 -3.289616 3.953408
H 2.537819 -4.102511 1.523360
H 4.030055 -3.160655 1.788360