22
H13 C7 N1 O1
C 1.169254 -0.099304 -0.039023
C 2.466805 0.197651 0.038795
C 3.261894 0.870279 -1.041447
N 4.451036 0.100433 -1.369072
C 5.313354 0.740884 -2.330897
C 6.196151 1.919993 -1.869128
C 7.323823 1.370029 -2.769451
C 6.606742 0.006217 -2.722559
O 6.623841 -0.852298 -3.819149
H 0.642254 -0.581279 0.789947
H 0.582019 0.133278 -0.934737
H 3.031785 -0.057593 0.944368
H 3.593317 1.857534 -0.671006
H 2.612681 1.069093 -1.920679
H 4.168732 -0.809036 -1.734831
H 4.781315 1.035218 -3.263765
H 6.439110 1.816078 -0.800520
H 5.834526 2.939252 -2.062586
H 8.360513 1.422831 -2.407493
H 7.274197 1.799350 -3.783409
H 6.955289 -0.577139 -1.854901
H 6.333451 -0.351702 -4.591499