26
H16 C7 N1 O1 F1
C 0.886113 -0.026593 -0.174691
O 2.282481 -0.028151 -0.151863
C 2.839572 -1.296831 -0.335963
C 4.359056 -1.210036 -0.240608
C 4.791998 -0.735741 1.141773
N 4.897139 -2.527305 -0.553856
C 6.342168 -2.593844 -0.677469
C 6.778395 -3.974484 -1.149311
C 8.281920 -4.102323 -1.236942
F 8.625149 -5.369671 -1.689101
H 0.542985 1.006498 -0.021105
H 0.458019 -0.661192 0.625921
H 0.486976 -0.387634 -1.142986
H 2.552910 -1.704823 -1.328506
H 2.464978 -2.011609 0.426464
H 4.687163 -0.448572 -0.983090
H 4.561112 -1.505670 1.896462
H 4.254235 0.186051 1.404134
H 5.869793 -0.520523 1.186252
H 4.489773 -2.839199 -1.435300
H 6.800639 -2.390585 0.304472
H 6.742377 -1.821855 -1.371448
H 6.346891 -4.182871 -2.143397
H 6.386635 -4.735696 -0.455492
H 8.754136 -3.955843 -0.251725
H 8.706538 -3.367177 -1.940044