33
H21 C10 N1 O1
C 1.471712 0.277864 0.690340
C 2.800251 0.330005 0.534031
C 3.513201 1.598646 0.150820
C 3.665951 -0.894527 0.717033
C 4.090770 -1.527634 -0.612775
N 4.993420 -2.653895 -0.428864
C 4.874373 -3.662889 -1.474981
C 3.655426 -4.557446 -1.305692
C 6.367063 -2.250079 -0.182936
C 7.068182 -3.195824 0.777537
O 8.392241 -2.773929 0.941631
C 9.124936 -3.575246 1.818789
H 0.841662 1.160510 0.538977
H 0.968601 -0.651061 0.978951
H 2.813944 2.431637 -0.010910
H 4.104837 1.460879 -0.769086
H 4.225893 1.891397 0.940159
H 3.132071 -1.659766 1.301584
H 4.566037 -0.616538 1.291924
H 4.537623 -0.760819 -1.281415
H 3.181666 -1.881634 -1.121490
H 5.775716 -4.293963 -1.445313
H 4.864912 -3.193189 -2.483308
H 3.693081 -5.077017 -0.335533
H 3.618251 -5.314533 -2.104277
H 2.714446 -3.987058 -1.347640
H 6.380582 -1.246062 0.267550
H 6.956372 -2.178386 -1.121613
H 7.035229 -4.236421 0.393471
H 6.525252 -3.196261 1.745062
H 10.145184 -3.170259 1.882775
H 9.187028 -4.624813 1.468982
H 8.688017 -3.584179 2.836968