24
H15 C7 N1 O1
C 0.910834 0.185459 0.010932
C 2.412251 -0.054395 0.001596
N 3.019666 0.460086 1.216655
C 4.459399 0.532051 1.310862
C 4.817359 0.783434 2.780663
C 6.291324 0.983562 3.108801
C 5.361580 -0.530744 0.623380
O 6.098641 0.487202 -0.056313
C 5.157078 1.490833 0.323412
H 0.446108 -0.191829 -0.912703
H 0.688594 1.260067 0.101100
H 0.434487 -0.330991 0.860531
H 2.857124 0.459985 -0.865576
H 2.605713 -1.135608 -0.153665
H 2.645313 -0.039850 2.020976
H 4.430087 -0.071053 3.364200
H 4.242128 1.667278 3.104690
H 6.900046 0.105979 2.843467
H 6.414996 1.151435 4.189432
H 6.717078 1.857446 2.592989
H 4.831800 -1.196371 -0.079947
H 5.997362 -1.150998 1.277984
H 4.516803 1.806806 -0.519538
H 5.636187 2.388646 0.749821