33
H21 C9 N1 O2
C 8.448042 3.366281 -5.213817
O 8.053432 2.762092 -4.018564
C 9.086136 2.062744 -3.375579
C 8.562488 1.499466 -2.062011
C 7.453989 0.468427 -2.301975
N 8.196038 2.617678 -1.205319
C 7.787017 2.318153 0.166890
C 6.272619 2.416211 0.346725
C 8.581856 3.217615 1.127566
C 8.372466 2.983536 2.631973
C 7.299163 3.875736 3.245273
O 9.589867 3.133636 3.345602
H 7.576801 3.883565 -5.640534
H 8.810802 2.624441 -5.952147
H 9.254465 4.109191 -5.056114
H 9.937565 2.740957 -3.167243
H 9.461040 1.242108 -4.020491
H 9.416732 0.983389 -1.588455
H 6.592911 0.936833 -2.802918
H 7.107657 0.027463 -1.355042
H 7.815028 -0.354386 -2.939615
H 7.491141 3.179848 -1.678180
H 8.083770 1.276673 0.386962
H 5.929677 3.455041 0.203348
H 5.953695 2.088488 1.347647
H 5.755143 1.784368 -0.390414
H 8.382243 4.275186 0.874110
H 9.647640 3.038695 0.917289
H 8.090552 1.926785 2.783634
H 7.588470 4.936074 3.145914
H 7.179976 3.651679 4.316180
H 6.324179 3.750260 2.754181
H 9.865343 4.053694 3.248076