25
H16 C8 O1
C 6.797382 -1.031180 2.782806
C 6.309502 0.393734 3.034639
C 4.846262 0.702111 2.666251
C 3.864346 -0.270633 3.319078
C 4.561411 0.824351 1.161971
C 5.459569 1.814235 0.389690
C 6.379762 0.904243 -0.424616
C 5.468940 -0.290351 -0.671436
O 4.716589 -0.436173 0.513274
H 7.857015 -1.130241 3.067185
H 6.696493 -1.317381 1.727198
H 6.230748 -1.764760 3.377655
H 6.971044 1.102967 2.509340
H 6.434472 0.619743 4.107999
H 4.632596 1.708806 3.068944
H 3.943934 -1.274250 2.875188
H 2.825125 0.069583 3.184034
H 4.050810 -0.359851 4.401409
H 3.503800 1.135523 1.061762
H 6.001817 2.498942 1.057268
H 4.844195 2.429248 -0.284383
H 7.254430 0.596253 0.169497
H 6.740691 1.366652 -1.354183
H 6.010881 -1.229691 -0.861691
H 4.803359 -0.100472 -1.537900