34
H21 C11 N1 O1
C 3.084703 -0.843568 -1.148934
C 2.569279 -0.084908 0.072899
C 1.068388 -0.254940 0.284580
C 0.261278 -1.365199 -0.332347
C 0.071473 0.051485 -0.798725
N 2.933069 1.337746 -0.031244
C 2.180775 2.250372 0.806716
C 4.363094 1.587521 0.087208
C 4.847670 2.518448 -1.012131
O 6.215706 2.756559 -0.813894
C 6.858040 3.677236 -1.629785
C 6.419203 4.045262 -3.016097
C 6.351184 5.064450 -1.893679
H 4.155805 -0.660933 -1.312005
H 2.555750 -0.532361 -2.063575
H 2.960202 -1.928380 -1.021274
H 3.056720 -0.526472 0.971946
H 0.743150 0.024111 1.291167
H -0.522392 -1.816006 0.282282
H 0.751386 -2.063437 -1.014745
H -0.844451 0.579089 -0.519023
H 0.459411 0.315340 -1.787012
H 1.113695 2.251765 0.547596
H 2.549471 3.275054 0.648540
H 2.273548 2.030285 1.893517
H 4.933316 0.649568 0.020194
H 4.619027 2.027108 1.071474
H 4.261854 3.457141 -0.984143
H 4.658880 2.041963 -1.992530
H 7.937187 3.585252 -1.477485
H 5.464212 3.662514 -3.385125
H 7.188184 4.152792 -3.786054
H 5.353159 5.331768 -1.534740
H 7.072970 5.885702 -1.875215