24
H12 C7 N1 O1 F3
O 0.860629 0.146993 -0.163058
C 2.183299 -0.311377 -0.020123
C 2.869223 -0.134618 -1.373926
N 4.275842 -0.475887 -1.466139
C 4.643046 -1.857310 -1.191505
C 5.069380 -1.917211 0.290243
C 5.518493 -0.473047 0.606760
C 6.971549 -0.378233 0.991049
F 7.788401 -0.907335 0.064943
F 7.358627 0.896906 1.159934
F 7.233596 -1.016812 2.142056
C 5.197660 0.330619 -0.686982
H 0.404093 0.017202 0.674864
H 2.207675 -1.376386 0.280087
H 2.726946 0.262007 0.756351
H 2.748163 0.919547 -1.673270
H 2.315219 -0.733372 -2.115723
H 5.501017 -2.138775 -1.826922
H 3.815941 -2.540777 -1.430635
H 5.862988 -2.658782 0.460718
H 4.224310 -2.192986 0.934978
H 4.960342 -0.066711 1.461847
H 6.127588 0.487208 -1.261254
H 4.776685 1.321424 -0.469546