38
H25 C11 N1 O1
C 1.076418 -0.460778 0.128147
C 2.580290 -0.329416 -0.079884
C 2.953157 0.676463 -1.167063
C 4.459482 0.817651 -1.355461
C 4.910423 1.724098 -2.504709
C 4.369998 3.164011 -2.387161
C 3.102328 3.434200 -3.189908
N 6.372347 1.730608 -2.529090
C 6.953022 2.093922 -3.806135
C 8.459899 2.224951 -3.688507
O 8.986052 2.568760 -4.937438
C 10.381123 2.720257 -4.941488
C 10.840139 3.086177 -6.335190
H 0.839628 -1.193230 0.915502
H 0.573328 -0.789767 -0.795904
H 0.628991 0.502514 0.423157
H 3.005571 -1.315512 -0.336737
H 3.059947 -0.029998 0.868584
H 2.512626 1.655322 -0.911032
H 2.488048 0.369408 -2.121216
H 4.890554 -0.186399 -1.522126
H 4.914756 1.198248 -0.423038
H 4.512627 1.289289 -3.449950
H 5.153820 3.859430 -2.726536
H 4.206366 3.401180 -1.321300
H 3.281610 3.281251 -4.266794
H 2.759933 4.471994 -3.053884
H 2.274367 2.771086 -2.897542
H 6.707942 0.802143 -2.277060
H 6.547027 3.065612 -4.131654
H 6.716387 1.369330 -4.614509
H 8.895166 1.268014 -3.329263
H 8.703275 2.991829 -2.925126
H 10.870045 1.781053 -4.610228
H 10.683865 3.505304 -4.218499
H 10.566130 2.298959 -7.054209
H 11.932993 3.210612 -6.357225
H 10.377162 4.029862 -6.662064