33
H21 C10 N1 O1
C 1.448968 -1.154372 1.056578
O 1.824120 0.152130 0.723632
C 3.191894 0.372489 0.443088
C 3.615738 -0.224250 -0.895855
C 4.127016 -0.086162 1.567552
N 3.696193 0.320938 2.883552
C 3.499457 1.752372 3.046738
C 3.453094 1.973319 4.568523
C 3.942967 0.643809 5.189625
C 2.802037 -0.133444 5.842424
C 4.572652 -0.078687 3.980096
C 4.740919 -1.582800 4.122059
H 0.352513 -1.164548 1.143946
H 1.870606 -1.477962 2.024682
H 1.730528 -1.895613 0.285628
H 3.266410 1.468559 0.358184
H 3.613487 -1.325311 -0.877175
H 4.634499 0.102002 -1.154389
H 2.935075 0.111487 -1.692242
H 5.142956 0.307839 1.327814
H 4.207004 -1.184819 1.541422
H 2.581240 2.080111 2.537701
H 4.346493 2.321916 2.601722
H 2.434272 2.211040 4.908832
H 4.093556 2.818508 4.858296
H 4.720485 0.827148 5.947755
H 2.023106 -0.383060 5.104143
H 2.331933 0.470361 6.634669
H 3.149089 -1.070187 6.304966
H 5.587815 0.360502 3.822746
H 3.767940 -2.096832 4.147978
H 5.279543 -1.816160 5.053585
H 5.327829 -2.005583 3.293073