33
H21 C10 N1 O1
C 1.999444 0.758020 1.005034
C 2.940526 -0.196469 0.263437
C 2.302553 -1.593653 0.100123
C 3.197386 -2.566905 -0.651885
O 1.936789 -2.110880 1.366158
N 3.457945 0.318060 -1.003908
C 2.441537 0.714133 -1.957318
C 4.502863 1.312669 -0.845961
C 5.363982 1.534343 -2.081200
C 4.898502 2.468265 -3.227798
C 6.331541 3.032791 -3.309783
C 6.595986 2.451650 -1.905566
H 1.736196 0.343947 1.987713
H 1.061799 0.911870 0.447199
H 2.470081 1.740926 1.161334
H 3.828475 -0.357716 0.902286
H 1.348245 -1.492002 -0.443977
H 4.172960 -2.665339 -0.145240
H 3.386625 -2.227122 -1.678835
H 2.725032 -3.560209 -0.687161
H 2.750622 -2.250497 1.866950
H 1.640856 -0.037628 -2.006979
H 2.869813 0.789543 -2.967193
H 1.970613 1.693047 -1.722463
H 5.168455 0.972742 -0.034804
H 4.097971 2.301233 -0.524208
H 5.667666 0.553982 -2.484660
H 4.182811 3.220346 -2.857759
H 4.480470 2.003093 -4.133260
H 6.446512 4.119025 -3.442358
H 6.927059 2.520992 -4.081259
H 6.418217 3.201670 -1.117302
H 7.567437 1.969693 -1.716737