27
H17 C8 N1 O1
C 0.949619 -0.015073 0.146844
O 2.303970 0.165742 0.432559
C 2.820266 1.367676 -0.062510
C 4.290098 1.463611 0.302346
N 4.854802 2.702377 -0.195334
C 6.294674 2.814297 -0.070651
C 6.840541 4.120711 -0.649896
C 8.289920 4.160594 -0.160211
C 8.275016 3.461119 1.224346
C 6.882368 2.811497 1.355868
H 0.635316 -0.979226 0.571810
H 0.753723 -0.033116 -0.943520
H 0.321336 0.783178 0.589530
H 2.270388 2.234546 0.362511
H 2.708720 1.428793 -1.164410
H 4.824380 0.618318 -0.163680
H 4.388366 1.332809 1.399917
H 4.420968 3.489703 0.287926
H 6.741305 1.972704 -0.633151
H 6.264357 4.961692 -0.222914
H 6.742430 4.173890 -1.744623
H 8.691851 5.183473 -0.113970
H 8.928991 3.598508 -0.859777
H 8.454432 4.176760 2.040681
H 9.075419 2.708706 1.288158
H 6.224490 3.428557 1.992837
H 6.917774 1.806634 1.802554