31
H19 C10 N1 O1
C 1.266224 -2.719588 0.354557
C 2.205947 -2.329974 1.217895
C 3.171861 -3.239249 1.919951
C 4.628927 -2.918863 1.570689
C 5.673510 -3.670063 2.410763
C 5.540403 -5.184818 2.289222
N 7.051452 -3.302807 2.090042
C 7.505450 -1.945535 2.376537
C 7.283151 -0.941870 1.274288
C 6.864176 0.311007 1.454473
C 9.005863 -2.044703 2.718747
O 9.221624 -3.090859 3.615933
H 0.599002 -1.999297 -0.128658
H 1.126537 -3.776537 0.099727
H 2.311876 -1.259029 1.438634
H 2.932977 -4.286505 1.675872
H 3.040165 -3.126792 3.011893
H 4.790829 -1.836700 1.698288
H 4.809710 -3.135420 0.501838
H 5.515772 -3.395045 3.469438
H 5.652740 -5.502648 1.238621
H 4.562445 -5.538652 2.645660
H 6.320377 -5.685167 2.882350
H 7.273694 -3.561395 1.127901
H 6.981993 -1.611682 3.288224
H 7.538496 -1.288414 0.263567
H 6.602469 0.686646 2.450255
H 6.762413 1.007466 0.616987
H 9.347279 -1.096695 3.165468
H 9.577452 -2.185522 1.775598
H 8.555356 -3.745678 3.332220