23
H14 C7 O2
C 0.995824 0.002441 0.242793
C 2.499951 0.142956 0.175145
O 3.090018 -0.752600 1.084726
C 4.482076 -0.699452 1.099884
C 5.169643 0.507076 1.783462
C 6.129350 -0.491531 2.473482
C 7.484639 -0.603026 1.791834
O 8.235081 -1.705654 2.237465
C 5.147524 -1.632353 2.118573
H 0.514987 0.691798 -0.467075
H 0.628417 0.234517 1.254161
H 0.689788 -1.024510 -0.009217
H 2.796665 1.184531 0.410315
H 2.860679 -0.065005 -0.852891
H 4.881328 -0.853672 0.077964
H 4.485084 0.980729 2.502798
H 5.618302 1.281627 1.141693
H 6.285335 -0.325051 3.552148
H 8.036581 0.348574 1.928966
H 7.350410 -0.737090 0.705399
H 8.372744 -1.602135 3.186653
H 4.450048 -1.845988 2.941870
H 5.580808 -2.574973 1.752650