26
H16 C8 O2
O 6.000793 1.793521 3.797826
C 5.617337 2.245920 2.520678
C 6.445115 1.525021 1.474167
C 6.106409 1.947331 0.048576
C 6.933144 1.215767 -1.003516
C 6.605227 1.618278 -2.438101
C 7.150799 2.996985 -2.852659
C 8.449144 2.640908 -3.575928
C 8.056485 1.334251 -4.249025
O 7.203484 0.679891 -3.331742
H 5.467288 2.257252 4.451990
H 5.768830 3.339441 2.418789
H 4.541528 2.055616 2.332483
H 6.291534 0.438358 1.591476
H 7.512907 1.714946 1.679020
H 6.254045 3.037055 -0.051618
H 5.033605 1.765845 -0.143036
H 6.763183 0.129615 -0.914901
H 8.010437 1.380505 -0.823137
H 5.508377 1.578723 -2.572867
H 7.298396 3.667067 -1.993656
H 6.454075 3.491587 -3.547183
H 9.263624 2.468631 -2.854361
H 8.779467 3.409810 -4.288462
H 8.911986 0.676684 -4.468863
H 7.527261 1.531261 -5.203000