25
H15 C7 N1 F2
C 0.843392 0.004062 -0.031516
C 2.367086 0.014941 -0.057574
C 2.957374 1.421920 -0.050227
C 4.479071 1.438632 -0.072752
N 4.991252 2.797827 -0.088206
C 6.432025 2.881276 -0.078955
C 6.897295 4.317833 -0.231501
C 6.485045 5.024180 -1.493341
F 6.441202 5.034188 0.852265
F 8.263102 4.331339 -0.123241
H 0.447539 -1.023325 -0.037961
H 0.426027 0.528548 -0.906512
H 0.456535 0.505451 0.870674
H 2.724528 -0.523424 -0.952744
H 2.754371 -0.546671 0.810445
H 2.605896 1.961672 0.848197
H 2.584357 1.991411 -0.919153
H 4.840053 0.921728 -0.979422
H 4.865978 0.853090 0.789863
H 4.625891 3.300515 0.719909
H 6.840050 2.307360 -0.926078
H 6.903534 2.481821 0.843461
H 5.391664 5.008104 -1.582088
H 6.919641 4.512615 -2.362781
H 6.840932 6.063569 -1.466633