19
H12 C5 S1 O1
C 1.044727 0.015156 -0.117806
C 2.560437 -0.021481 0.017370
C 3.137299 0.916757 1.079962
S 2.529250 0.547713 2.774265
C 4.657519 0.952369 1.018077
O 5.156645 1.964413 1.838488
C 6.551694 2.018503 1.861601
H 0.709989 -0.653587 -0.925277
H 0.693417 1.032310 -0.355660
H 0.549809 -0.300662 0.812515
H 3.016298 0.255671 -0.948565
H 2.896921 -1.051947 0.229179
H 2.771441 1.941404 0.897929
H 2.894471 -0.753960 2.782161
H 4.961308 1.124655 -0.035878
H 5.068260 -0.037508 1.309940
H 6.849768 2.844925 2.522494
H 6.978743 2.203836 0.856049
H 6.996841 1.081522 2.250543