38
H25 C11 N1 O1
C 1.515482 0.745300 -0.916834
C 2.888359 0.784689 -0.256199
C 2.897936 0.856475 1.279915
C 2.200577 -0.345448 1.947518
C 0.728494 -0.124027 2.283515
N 4.261523 0.991158 1.797674
C 4.875356 2.312241 1.711934
C 4.620357 3.079960 3.006601
O 3.241272 3.186078 3.236195
C 2.926956 3.822658 4.437468
C 6.381235 2.176936 1.398929
C 6.598699 1.647985 -0.021571
C 7.165204 3.476632 1.588344
H 1.607265 0.796562 -2.013067
H 0.891259 1.595346 -0.595937
H 0.969320 -0.180700 -0.679312
H 3.444985 1.655907 -0.641880
H 3.467805 -0.107033 -0.559681
H 2.363099 1.766049 1.592773
H 2.745930 -0.554727 2.880766
H 2.314032 -1.244947 1.315502
H 0.613027 0.719410 2.983718
H 0.291749 -1.014867 2.762078
H 0.123927 0.102677 1.392940
H 4.853400 0.296446 1.348794
H 4.425029 2.910783 0.891032
H 5.061267 4.093845 2.952060
H 5.112665 2.545417 3.846360
H 1.831793 3.866074 4.525285
H 3.322522 4.857127 4.476242
H 3.326694 3.275292 5.313815
H 6.783775 1.431735 2.110425
H 6.251513 2.384426 -0.765527
H 6.063624 0.705785 -0.212727
H 7.667487 1.460889 -0.208383
H 6.724138 4.296408 0.996439
H 8.204530 3.345530 1.249151
H 7.205087 3.798390 2.639032