33
H21 C10 N1 O1
C 4.461535 2.896363 7.409560
C 4.266251 2.101445 6.123945
C 4.758074 2.836545 4.879855
C 4.570870 2.042530 3.591879
C 5.067925 2.758311 2.331996
C 4.715948 1.969298 1.069418
O 5.468157 0.785501 1.047311
C 5.254198 0.010967 -0.094854
N 6.492845 3.045767 2.459270
C 7.059254 3.889912 1.448594
C 8.526903 3.813104 1.169675
C 7.542362 3.361447 0.116506
H 4.103494 2.339296 8.289425
H 3.913623 3.852333 7.374384
H 5.525936 3.131711 7.573448
H 3.197023 1.852707 6.002645
H 4.794365 1.134842 6.204104
H 5.825376 3.086838 4.994812
H 4.226936 3.802180 4.792040
H 3.501506 1.805900 3.457130
H 5.090316 1.071083 3.671394
H 4.540564 3.726305 2.252879
H 3.629699 1.745667 1.057806
H 4.929091 2.574697 0.166856
H 5.894361 -0.880537 -0.029685
H 5.512062 0.560845 -1.021308
H 4.200426 -0.319391 -0.179070
H 7.001040 2.162835 2.499341
H 6.611199 4.890189 1.436956
H 9.093841 3.038443 1.696329
H 9.077685 4.743543 1.008090
H 7.441730 2.283851 -0.042233
H 7.413505 3.977583 -0.778279