28
H17 C9 N1 O1
C 1.179959 -0.350719 -0.036059
O 2.546685 -0.066730 -0.020836
C 2.845434 1.195131 0.508212
C 4.352002 1.391719 0.425539
N 4.833614 2.541247 1.163918
C 6.280625 2.418129 1.426036
C 6.936354 3.588571 2.207178
C 6.434035 4.779043 1.432516
C 5.744396 6.106799 1.597109
C 4.938652 4.833749 1.568741
C 4.336911 3.828808 0.628200
H 1.044158 -1.356674 -0.458583
H 0.612375 0.369425 -0.658119
H 0.741708 -0.336836 0.981437
H 2.528179 1.270963 1.568999
H 2.298352 1.979360 -0.051381
H 4.655080 1.421661 -0.645757
H 4.809434 0.485662 0.853103
H 6.840815 2.313277 0.469170
H 6.428874 1.474302 1.974540
H 8.029761 3.446553 2.196813
H 6.603356 3.607127 3.256443
H 6.717034 4.667507 0.377221
H 5.814440 6.766899 0.727604
H 5.718371 6.632821 2.555959
H 4.634570 4.576896 2.590037
H 4.647820 4.005557 -0.423776
H 3.236234 3.805303 0.651875