27
H16 C8 N1 O1 F1
C 3.105288 1.581742 0.340178
C 2.504193 0.212925 0.062957
O 1.093697 0.266090 -0.022075
C 2.921204 -0.834384 1.103903
N 4.357238 -1.063809 1.142350
C 4.911801 -1.370891 2.453223
C 4.673805 -2.820208 2.885464
C 5.248273 -3.775599 1.839477
C 4.739946 -3.446928 0.446431
F 3.388275 -3.821165 0.365932
C 4.869750 -1.961769 0.119884
H 4.202499 1.523013 0.375521
H 2.754581 1.965162 1.314182
H 2.813097 2.301196 -0.439538
H 2.838407 -0.126443 -0.932084
H 0.765902 0.598040 0.823227
H 2.336977 -1.751689 0.909305
H 2.606640 -0.461585 2.094184
H 4.494708 -0.667540 3.189778
H 6.001429 -1.186013 2.416692
H 3.591454 -2.997867 3.001682
H 5.136439 -3.005683 3.867490
H 5.015739 -4.826305 2.072711
H 6.347681 -3.686319 1.819647
H 5.272044 -4.039954 -0.315102
H 4.371625 -1.760626 -0.840105
H 5.945670 -1.761502 -0.031404