31
H19 C10 N1 O1
C 1.435414 0.049062 -0.881532
C 2.360486 0.158472 0.071352
C 3.048846 1.434817 0.444615
O 4.436282 1.226298 0.455307
C 5.167334 2.344343 0.878340
C 6.644433 1.985420 0.841725
N 7.500947 3.102737 1.194312
C 7.535833 3.345026 2.622454
C 8.834111 2.967697 0.622609
C 9.697162 4.198339 0.785518
C 10.590273 4.633186 -0.344129
C 9.364896 5.435352 -0.000272
H 0.940078 -0.903880 -1.090080
H 1.132184 0.911173 -1.486221
H 2.651208 -0.720562 0.659850
H 2.705414 1.754717 1.451711
H 2.772200 2.245452 -0.259129
H 4.850089 2.645898 1.896451
H 4.989488 3.213805 0.213877
H 6.877727 1.673477 -0.187931
H 6.818910 1.097680 1.489505
H 6.517408 3.434832 3.025734
H 8.054487 4.288519 2.846062
H 8.050290 2.531111 3.181802
H 8.715688 2.763287 -0.453765
H 9.370106 2.090659 1.054183
H 10.098064 4.362669 1.790780
H 10.573241 4.041061 -1.264254
H 11.569139 5.050914 -0.093992
H 8.508910 5.378133 -0.679471
H 9.498740 6.408206 0.480158