34
H21 C10 N1 F2
C 0.792198 0.028218 -0.529205
C 2.300984 0.052389 -0.735972
C 2.962857 -1.298352 -0.468269
C 4.501001 -1.287246 -0.599265
N 5.120846 -1.378095 0.722280
C 4.860942 -0.258695 1.596490
C 5.513780 -0.493492 2.933792
F 6.868502 -0.581789 2.784105
F 5.279478 0.561090 3.757862
C 5.065389 -2.397278 -1.534430
C 4.678990 -3.794415 -1.033381
C 4.523071 -2.177450 -2.953515
C 6.598989 -2.295665 -1.601006
H 0.338274 1.008454 -0.742484
H 0.537951 -0.239075 0.509649
H 0.311415 -0.713495 -1.188042
H 2.751307 0.823567 -0.087410
H 2.528943 0.360379 -1.771458
H 2.520990 -2.035962 -1.155376
H 2.699102 -1.652802 0.542627
H 4.785705 -0.324281 -1.080903
H 6.128640 -1.452239 0.606656
H 3.781764 -0.156584 1.785720
H 5.220691 0.717150 1.205625
H 5.168775 -1.414494 3.428639
H 3.590436 -3.956836 -1.067715
H 5.010498 -3.942620 0.005486
H 5.148327 -4.572168 -1.657298
H 3.425708 -2.245484 -2.998942
H 4.927083 -2.938495 -3.639932
H 4.816347 -1.187926 -3.341146
H 7.086406 -2.601660 -0.661536
H 6.922675 -1.268802 -1.839253
H 6.990137 -2.959634 -2.387994