39
H26 C11 N2
C 2.445697 -1.467952 -0.401008
C 3.933909 -1.774154 -0.590007
C 4.122055 -3.259457 -0.906210
C 4.595592 -0.902632 -1.675448
C 5.270245 0.393273 -1.203744
C 4.324145 1.360788 -0.464725
N 3.222622 1.907710 -1.243938
N 5.936403 0.999461 -2.353686
C 6.956862 2.008275 -2.075822
C 8.274569 1.307788 -1.744967
C 7.078285 2.975867 -3.271728
C 5.788604 3.772298 -3.494173
C 8.256399 3.938539 -3.117212
H 2.013953 -2.086360 0.402256
H 1.886186 -1.687096 -1.326412
H 2.256133 -0.416332 -0.140464
H 4.447981 -1.571582 0.367650
H 3.664886 -3.513085 -1.878054
H 3.652219 -3.897268 -0.140282
H 5.189338 -3.526817 -0.959705
H 3.853212 -0.664089 -2.460788
H 5.382381 -1.481358 -2.184526
H 6.050961 0.104227 -0.477970
H 3.921726 0.853092 0.427506
H 4.915469 2.206234 -0.076649
H 2.705534 1.159709 -1.705410
H 3.582949 2.498042 -1.992499
H 5.222599 1.375969 -2.971948
H 6.678719 2.632773 -1.198871
H 8.683260 0.811061 -2.640441
H 8.119562 0.536342 -0.975490
H 9.028739 2.006698 -1.354881
H 7.258429 2.353023 -4.168062
H 5.525062 4.349028 -2.591316
H 4.926302 3.138863 -3.752887
H 5.911874 4.487336 -4.322337
H 8.173436 4.517214 -2.181285
H 8.278757 4.657453 -3.950865
H 9.224814 3.418162 -3.107854