31
H19 C9 N1 O2
C 1.708837 0.291639 -2.074751
O 2.374979 0.279209 -0.847673
C 2.913193 -0.971503 -0.518653
C 3.561791 -0.882625 0.866360
C 2.524382 -0.607056 1.950100
N 4.392045 -2.036632 1.195515
C 5.693843 -2.071599 0.555785
C 6.553053 -3.140889 1.212917
O 5.923202 -4.400734 1.199292
C 4.626376 -4.399130 1.778585
C 4.664437 -4.248997 3.295672
C 3.755786 -3.338928 1.100233
H 1.330291 1.309180 -2.248643
H 0.850199 -0.408284 -2.087694
H 2.379409 0.019773 -2.913734
H 3.666917 -1.278568 -1.272273
H 2.118751 -1.746530 -0.522443
H 4.244418 -0.016841 0.828939
H 1.792401 -1.426486 2.030754
H 1.968499 0.311487 1.714895
H 3.013709 -0.484317 2.927958
H 6.188385 -1.093838 0.666295
H 5.622447 -2.289854 -0.533415
H 6.797574 -2.830630 2.246889
H 7.500886 -3.254430 0.666144
H 4.209451 -5.388526 1.534153
H 4.928054 -3.225019 3.597178
H 5.396628 -4.946689 3.729447
H 3.675324 -4.479564 3.719809
H 2.769424 -3.317345 1.586225
H 3.600567 -3.646953 0.043225