22
H14 C7 O1
C 1.090345 0.232683 0.224581
O 2.301300 -0.055268 -0.415000
C 2.878861 -1.324145 -0.175348
C 3.440560 -1.468607 1.241956
C 4.178309 -2.799510 1.403856
C 3.282090 -3.984366 1.040561
C 2.698348 -3.829882 -0.364630
C 1.959816 -2.498466 -0.518499
H 0.872123 1.295509 0.043492
H 1.128631 0.079343 1.318670
H 0.243174 -0.356362 -0.173068
H 3.733839 -1.358235 -0.873431
H 2.616457 -1.422394 1.974851
H 4.110882 -0.619827 1.452257
H 4.551169 -2.901265 2.435449
H 5.066724 -2.803574 0.747163
H 2.455242 -4.050499 1.770411
H 3.846611 -4.927529 1.117653
H 2.018057 -4.665846 -0.592378
H 3.516665 -3.879904 -1.104991
H 1.086154 -2.495231 0.156286
H 1.578322 -2.376516 -1.545360