26
H16 C7 N1 O1 F1
C 0.993420 0.179439 0.271866
C 2.514607 0.164489 0.114748
C 3.139126 -0.371028 1.401639
N 2.895803 -0.616758 -1.072090
C 2.369629 -0.076043 -2.321711
C 1.308552 -0.970921 -2.958112
O 0.844800 -0.462990 -4.184028
C 4.290355 -0.997690 -1.180732
C 4.467304 -2.206309 -2.082343
F 5.806396 -2.568758 -2.089638
H 0.709509 0.792470 1.140568
H 0.617485 -0.844288 0.432223
H 0.478920 0.599636 -0.604047
H 2.851680 1.218891 -0.008146
H 2.938282 -1.449411 1.512688
H 2.695307 0.146990 2.264568
H 4.224999 -0.210678 1.454451
H 3.181827 0.066749 -3.055845
H 1.940632 0.930379 -2.162505
H 0.482891 -1.133654 -2.239637
H 1.745352 -1.960415 -3.166526
H 0.393728 0.370708 -4.005956
H 4.679637 -1.289205 -0.198019
H 4.935283 -0.172433 -1.554935
H 4.171192 -2.004811 -3.123987
H 3.875084 -3.053630 -1.700983