30
H17 C8 N1 O2 F2
C 0.986244 0.122206 -0.184030
O 2.373975 0.050810 -0.048059
C 2.782789 -0.299855 1.240362
C 4.299588 -0.309907 1.316986
O 4.853925 0.966381 1.069381
C 4.787690 -0.862861 2.652794
N 6.233462 -0.894002 2.680784
C 6.794294 -1.220043 3.975666
C 8.315637 -1.215670 3.930185
C 8.943704 -1.576829 5.270426
C 10.447480 -1.586742 5.230419
F 10.928965 -0.342363 4.942497
F 10.948791 -1.918832 6.453610
H 0.758394 0.397228 -1.223820
H 0.542223 0.885743 0.485068
H 0.495564 -0.846439 0.036990
H 2.396092 -1.301306 1.520009
H 2.380431 0.416500 1.989801
H 4.682674 -0.957660 0.511539
H 4.457165 1.584767 1.696857
H 4.392264 -1.883164 2.795566
H 4.356032 -0.240988 3.471770
H 6.569339 0.022445 2.384954
H 6.439518 -2.223799 4.270808
H 6.449487 -0.527834 4.776469
H 8.663889 -0.215993 3.619769
H 8.650726 -1.922601 3.152793
H 8.619677 -2.580374 5.588956
H 8.636370 -0.866080 6.055455
H 10.866511 -2.286846 4.489798