23
H13 C7 N1 F2
F 0.729998 0.043069 -0.247409
C 2.038467 -0.072932 -0.670895
C 2.677001 1.296818 -0.842504
C 2.640561 2.122079 0.438868
F 1.366984 2.600761 0.691532
N 4.065785 1.102118 -1.223075
C 4.635343 2.158717 -2.042312
C 6.151696 2.137113 -2.066398
C 6.943012 1.888467 -0.815292
C 6.937919 0.863378 -1.919468
H 2.044607 -0.617192 -1.629545
H 2.597330 -0.659892 0.077543
H 2.099112 1.846691 -1.614035
H 3.314511 2.988009 0.347032
H 2.964646 1.513046 1.299050
H 4.170109 0.213163 -1.707874
H 4.312293 3.130345 -1.633856
H 4.254091 2.123975 -3.083756
H 6.572959 2.872992 -2.759161
H 6.375614 1.644092 0.087267
H 7.852311 2.472543 -0.648870
H 6.393324 -0.067311 -1.735350
H 7.841555 0.744911 -2.523683