36
H23 C10 N1 O2
C 6.790320 1.758890 1.930266
O 6.269896 0.646427 1.263747
C 4.935207 0.378788 1.595909
C 4.460807 -0.893184 0.901831
C 2.939034 -0.963545 0.826559
N 2.290405 -0.835987 2.116841
C 0.863406 -1.097977 2.079966
C 0.243386 -0.938095 3.462194
C -1.279619 -1.106299 3.517718
C -1.732538 -2.488086 3.043713
C -1.794524 -0.823470 4.929075
O 4.921432 -2.066956 1.527676
C 6.280227 -2.361480 1.364610
H 7.829570 1.899213 1.600593
H 6.785604 1.623143 3.029437
H 6.221822 2.681352 1.699872
H 4.289458 1.228799 1.290703
H 4.819220 0.252360 2.691448
H 4.842373 -0.853584 -0.139557
H 2.593366 -0.202936 0.093014
H 2.680325 -1.947216 0.402854
H 2.435452 0.105358 2.480029
H 0.717845 -2.129411 1.716159
H 0.326207 -0.440511 1.358810
H 0.499807 0.066879 3.843620
H 0.720318 -1.659649 4.149901
H -1.723748 -0.354069 2.839707
H -1.262045 -3.282972 3.647672
H -1.475702 -2.671617 1.989248
H -2.824509 -2.598761 3.138969
H -1.387222 -1.554018 5.648630
H -2.893358 -0.886635 4.975360
H -1.500472 0.181519 5.271752
H 6.439521 -3.390902 1.719267
H 6.937310 -1.685695 1.937804
H 6.588338 -2.309432 0.301943