27
H17 C8 N1 O1
C 1.066018 0.083303 -0.279598
O 2.448510 -0.003809 -0.105748
C 2.898687 0.604473 1.070267
C 4.404919 0.448665 1.163372
N 4.907684 1.079549 2.365539
C 6.351453 1.027978 2.500213
C 6.863901 1.789141 3.713502
C 6.444597 3.261701 3.922783
C 6.388647 2.989616 5.440768
C 6.317006 1.479124 5.129367
H 0.807238 -0.417574 -1.223532
H 0.719546 1.134248 -0.334843
H 0.512127 -0.412272 0.542221
H 2.416429 0.143396 1.958746
H 2.637929 1.682441 1.089261
H 4.863772 0.933346 0.284903
H 4.656488 -0.631731 1.094393
H 4.480189 0.631309 3.174900
H 6.794156 1.478667 1.594194
H 6.734781 -0.015876 2.540901
H 7.963170 1.709082 3.726007
H 5.441237 3.435768 3.505331
H 7.126605 4.046204 3.560227
H 5.557389 3.432631 6.009676
H 7.334570 3.256227 5.937030
H 5.273142 1.127798 5.103127
H 6.899560 0.790915 5.760774