27
H17 C8 N1 O1
C 5.467674 -2.687800 1.461264
C 4.658271 -1.824786 2.086705
C 3.170041 -1.826023 1.875519
C 5.225661 -0.835165 3.091989
N 4.957358 0.587253 2.928487
C 3.671115 1.071123 3.379145
C 5.500447 1.283825 1.762890
C 4.877801 0.952136 0.406462
C 7.021241 1.115887 1.751742
O 7.556557 1.379275 3.020292
H 5.078332 -3.444016 0.771587
H 6.551096 -2.669742 1.620911
H 2.848185 -2.683928 1.267389
H 2.844444 -0.907104 1.363119
H 2.635504 -1.858360 2.838961
H 6.315852 -0.987343 3.143737
H 4.834581 -1.111759 4.086939
H 3.399167 0.580313 4.326181
H 2.838241 0.905028 2.668013
H 3.727561 2.155848 3.567634
H 5.309054 2.353485 1.962181
H 5.085189 -0.083633 0.101426
H 5.284854 1.622302 -0.367108
H 3.787098 1.096371 0.426959
H 7.455593 1.816918 1.019565
H 7.282611 0.093739 1.407443
H 6.816815 1.204008 3.625890