20
H12 C6 N2
C 1.072596 -0.005653 0.013725
C 2.593917 -0.097452 -0.093180
C 3.022906 -1.466667 -0.621833
C 3.127058 1.049607 -0.953898
N 4.581056 1.093839 -0.983024
C 5.090861 2.217101 -1.740680
C 6.547767 2.330869 -1.595536
N 7.695871 2.406352 -1.487915
H 0.673969 -0.794331 0.670590
H 0.599005 -0.124876 -0.975407
H 0.754313 0.966106 0.423401
H 3.022979 0.031221 0.916298
H 2.671448 -1.616180 -1.657104
H 2.598893 -2.274264 -0.004693
H 4.116890 -1.594467 -0.611724
H 2.769178 2.005991 -0.535753
H 2.687794 0.971137 -1.973343
H 4.942383 0.233834 -1.392843
H 4.655062 3.153507 -1.355638
H 4.865464 2.188489 -2.826132