36
H23 C11 N1 O1
C 1.515535 -1.202515 -0.649630
C 2.258550 -0.173713 -0.237553
C 2.982888 0.789700 -1.131129
C 4.498316 0.782202 -0.909532
C 5.236419 1.782674 -1.794062
C 6.740804 1.779138 -1.544245
N 7.501787 2.570857 -2.499464
C 7.187996 3.984324 -2.423423
C 8.929914 2.321930 -2.409034
C 9.652147 2.576605 -3.723222
O 11.005974 2.269441 -3.546857
C 11.784860 2.464801 -4.697602
C 13.222223 2.104149 -4.396055
H 1.019750 -1.871330 0.060605
H 1.372065 -1.413615 -1.715685
H 2.376776 -0.004233 0.841451
H 2.604490 1.810159 -0.939456
H 2.759334 0.561887 -2.187037
H 4.885292 -0.234756 -1.096888
H 4.712294 1.001671 0.151719
H 4.817623 2.787643 -1.619039
H 5.057873 1.547766 -2.857868
H 7.099172 0.739081 -1.612064
H 6.937413 2.109727 -0.497081
H 6.137732 4.172025 -2.688932
H 7.803885 4.555959 -3.131726
H 7.363992 4.405178 -1.407707
H 9.090402 1.264634 -2.148590
H 9.413315 2.922634 -1.607267
H 9.535161 3.630121 -4.047741
H 9.197216 1.945493 -4.513724
H 11.715848 3.520061 -5.033021
H 11.399591 1.843135 -5.531707
H 13.619795 2.734623 -3.585993
H 13.848267 2.251247 -5.288660
H 13.302392 1.050957 -4.086070