36
H23 C11 N1 O1
C 4.706805 2.286606 -3.289785
O 4.360492 2.142049 -1.946613
C 5.125597 1.178603 -1.280285
C 4.736778 1.100050 0.193584
C 3.240968 0.860338 0.356822
N 5.118602 2.310918 0.908535
C 6.521838 2.421885 1.269825
C 6.977395 3.874451 1.438609
C 6.916767 4.643788 0.113675
C 7.350020 6.101932 0.266028
C 6.551266 6.815877 1.356640
C 6.634361 6.062931 2.684581
C 6.185590 4.609983 2.526696
H 4.053275 3.052218 -3.732483
H 4.575344 1.344368 -3.858469
H 5.759041 2.611481 -3.414772
H 6.205822 1.411464 -1.375310
H 4.978850 0.179146 -1.741387
H 5.272204 0.210973 0.594137
H 2.675071 1.725029 -0.019851
H 2.983764 0.708270 1.417063
H 2.921727 -0.032417 -0.201655
H 4.545272 2.399606 1.743130
H 7.127113 1.966223 0.469434
H 6.759723 1.852318 2.193509
H 8.035315 3.841483 1.761621
H 5.882153 4.595751 -0.266491
H 7.547852 4.137326 -0.636667
H 7.244121 6.631634 -0.694882
H 8.423666 6.136427 0.526152
H 5.492997 6.881996 1.045206
H 6.909235 7.851198 1.478846
H 6.023999 6.568199 3.450797
H 7.677539 6.084687 3.048757
H 5.114482 4.595592 2.255810
H 6.278296 4.072025 3.485754