31
H19 C10 N1 O1
C 1.412179 -0.327304 0.621413
C 2.846055 0.021409 0.289108
O 2.861551 0.702488 -0.945112
C 4.099073 1.086299 -1.464506
C 5.079918 1.838310 -0.535388
N 5.853518 0.604340 -0.380407
C 7.293069 0.701328 -0.332539
C 8.005779 -0.593918 0.032541
C 7.268022 -1.886642 0.279347
C 7.937335 -1.177906 1.424333
C 7.119230 -0.514913 2.506886
C 5.208042 0.014197 -1.557529
H 1.362520 -0.858347 1.583737
H 0.978789 -0.975668 -0.155493
H 0.796789 0.582457 0.695090
H 3.456682 -0.899138 0.240017
H 3.276310 0.649929 1.090728
H 3.872963 1.600190 -2.407835
H 4.680198 2.273800 0.396035
H 5.622630 2.628792 -1.090700
H 7.546330 1.480533 0.407141
H 7.690102 1.060817 -1.308335
H 8.977420 -0.699333 -0.459988
H 7.704775 -2.815209 -0.098741
H 6.175497 -1.850528 0.253773
H 8.869861 -1.630739 1.779214
H 6.185051 -0.102962 2.098081
H 7.676168 0.311176 2.978765
H 6.857393 -1.233752 3.299988
H 4.903199 -1.041747 -1.468847
H 5.806270 0.131049 -2.483287