27
H17 C8 N1 O1
C -2.714647 0.223316 0.265237
C -1.212134 0.078849 0.478152
C -0.426542 1.251709 -0.119152
C 1.080920 1.049158 0.057096
N 1.569980 -0.205256 -0.497081
C 1.702355 -0.235716 -1.943471
C 2.930177 -1.029896 -2.382467
O 3.085665 -1.048181 -3.779951
C 0.847864 -1.341189 0.064518
C -0.673883 -1.238856 -0.090771
H -3.093628 1.160525 0.703768
H -3.267065 -0.611820 0.725360
H -2.959925 0.234274 -0.810245
H -1.016311 0.073606 1.567807
H -0.734360 2.199911 0.352985
H -0.664207 1.339876 -1.195404
H 1.314561 1.058232 1.137706
H 1.641913 1.882050 -0.394467
H 1.813919 0.793291 -2.319956
H 0.807760 -0.654048 -2.452581
H 2.885152 -2.054942 -1.965272
H 3.829882 -0.554062 -1.961630
H 2.333559 -1.521977 -4.154022
H 1.093604 -1.406890 1.139909
H 1.217667 -2.269452 -0.397591
H -1.154238 -2.097372 0.407832
H -0.944781 -1.304930 -1.160238