30
H18 C9 N1 O1 F1
C 3.763239 -2.488913 2.679996
O 3.589474 -2.126071 1.342768
C 4.654850 -1.373959 0.828632
C 4.438349 -1.057574 -0.655260
C 3.082441 -0.395471 -0.885412
N 4.651908 -2.152160 -1.602054
C 3.860028 -3.368044 -1.449348
C 4.721679 -4.353850 -0.639795
C 6.174323 -3.939242 -0.957361
C 6.936076 -4.969910 -1.760120
F 7.103467 -6.136280 -1.023539
C 6.022800 -2.614815 -1.757395
H 2.883005 -3.067136 2.995315
H 3.856639 -1.603396 3.338953
H 4.665163 -3.115974 2.824707
H 5.613916 -1.913952 0.965121
H 4.749591 -0.418487 1.385981
H 5.212073 -0.310179 -0.897824
H 2.252703 -1.069801 -0.628572
H 2.978670 -0.102924 -1.940683
H 2.981248 0.505136 -0.260232
H 3.656335 -3.790652 -2.450512
H 2.893328 -3.160384 -0.973458
H 4.519469 -5.402947 -0.904647
H 4.511918 -4.236602 0.431703
H 6.734274 -3.759148 -0.026471
H 7.937435 -4.600221 -2.036330
H 6.389240 -5.230352 -2.682693
H 6.221864 -2.817263 -2.827271
H 6.739197 -1.843859 -1.439650