15
H9 C4 N1 O1
N 1.017652 -0.050075 0.040478
C 2.464648 -0.050584 0.031880
C 3.200722 -1.132673 0.846822
C 4.243965 -0.066899 1.245401
C 3.181668 0.996879 0.902952
O 3.547976 2.230165 0.367538
H 0.671246 -0.818329 -0.535173
H 0.682337 0.797372 -0.419750
H 2.911625 -0.006411 -0.984557
H 3.551420 -2.026804 0.312427
H 2.586194 -1.441383 1.706437
H 5.077794 -0.029979 0.525340
H 4.651830 -0.082661 2.266279
H 2.555182 1.205875 1.785579
H 4.106071 2.063726 -0.402012