30
H20 C8 N2
C 2.617952 -0.513408 -3.806418
C 2.254602 -0.134047 -2.375587
C 3.007056 -0.863178 -1.254850
N 2.481959 -0.372044 0.017674
C 4.538539 -0.745979 -1.357669
N 5.131995 -1.739451 -2.234213
C 6.563151 -1.582416 -2.403954
C 7.181286 -2.672789 -3.282466
C 6.595243 -2.673136 -4.695131
C 8.700970 -2.521422 -3.321670
H 1.941953 -0.017458 -4.519574
H 2.532623 -1.599873 -3.973573
H 3.641773 -0.205267 -4.072001
H 1.178877 -0.307592 -2.210454
H 2.413484 0.951500 -2.238386
H 2.772288 -1.941490 -1.318346
H 2.745343 0.608892 0.128979
H 2.936798 -0.861220 0.788283
H 4.959900 -0.894639 -0.347902
H 4.801275 0.298465 -1.647351
H 4.683987 -1.697032 -3.145185
H 7.032082 -1.620309 -1.404641
H 6.832673 -0.587273 -2.829165
H 6.939459 -3.642303 -2.811422
H 6.745645 -1.694617 -5.182955
H 5.515540 -2.891367 -4.697983
H 7.080284 -3.437689 -5.322339
H 8.990664 -1.563223 -3.785459
H 9.166284 -3.328684 -3.908688
H 9.135445 -2.548582 -2.309625