30
H17 C9 N1 O1 F2
O 1.531910 -0.045868 2.277665
C 1.564353 -1.339449 1.723935
C 2.786992 -1.442640 0.809286
C 4.127434 -1.170997 1.507367
C 4.578816 -2.158542 2.580318
C 4.634401 -3.623949 2.143202
C 3.250997 -4.246016 1.950601
C 2.567935 -3.968641 0.608626
N 2.809042 -2.662893 0.009921
C 2.306682 -2.554347 -1.338839
C 3.432137 -2.600695 -2.349221
F 4.084630 -3.796044 -2.281047
F 2.930690 -2.502628 -3.612558
H 0.824413 -0.014269 2.930132
H 0.661350 -1.543017 1.114289
H 1.598394 -2.108653 2.515997
H 2.671342 -0.616430 0.089745
H 4.079923 -0.162953 1.948926
H 4.892115 -1.135105 0.712796
H 3.917628 -2.080800 3.462075
H 5.577916 -1.845727 2.927207
H 5.168244 -4.196187 2.919325
H 5.229720 -3.723821 1.218222
H 2.608331 -3.917721 2.783859
H 3.316499 -5.341625 2.045920
H 1.481129 -4.175572 0.722557
H 2.938674 -4.709483 -0.117317
H 1.760070 -1.611380 -1.500343
H 1.605475 -3.370820 -1.586632
H 4.176390 -1.801267 -2.206416