30
H17 C9 N1 O1 F2
C 1.004818 -0.025823 0.018321
C 2.512731 0.088387 0.022007
O 3.011541 -0.390045 1.243405
C 4.404623 -0.325387 1.348620
C 4.815354 -0.869766 2.707651
N 6.255490 -0.795164 2.893976
C 6.736941 0.490394 3.378197
C 6.489188 0.707248 4.880217
C 7.033071 -0.454690 5.679097
F 6.694578 -0.318116 6.999501
F 8.409342 -0.410712 5.657983
C 6.576177 -1.797968 5.158297
C 6.841630 -1.890176 3.648140
H 0.595981 0.345056 -0.933312
H 0.567725 0.565587 0.837432
H 0.693726 -1.074203 0.144210
H 2.818732 1.143883 -0.129847
H 2.944028 -0.489304 -0.821068
H 4.757124 0.719862 1.229408
H 4.896035 -0.920868 0.552476
H 4.502044 -1.923579 2.762770
H 4.242474 -0.332262 3.489833
H 6.264079 1.303139 2.809057
H 7.820349 0.554033 3.182878
H 5.411196 0.778446 5.089072
H 6.963820 1.636364 5.229728
H 5.499121 -1.892482 5.365196
H 7.102224 -2.593470 5.707393
H 6.463450 -2.846779 3.260443
H 7.931838 -1.883324 3.480278