14
H8 C3 N2 O1
C 1.148410 -0.055347 0.020811
N 2.584647 -0.007813 -0.093823
C 3.208514 0.969780 -0.823124
O 2.611654 1.938161 -1.280289
N 4.553443 0.777993 -1.000158
C 5.385794 1.803784 -1.577395
H 0.870441 -0.627895 0.916771
H 0.660001 -0.521994 -0.853958
H 0.754060 0.964301 0.122881
H 3.093742 -0.864230 0.091577
H 5.012192 0.064592 -0.445426
H 4.847941 2.294749 -2.399199
H 6.300722 1.349207 -1.982353
H 5.678518 2.583242 -0.850554