27
H17 C7 N1 O2
C 10.664739 6.080720 -7.014512
O 10.012301 6.256918 -5.793283
C 10.114629 5.146491 -4.945326
C 9.379051 5.435369 -3.651492
C 9.424313 4.267725 -2.677010
N 8.739291 4.592649 -1.437929
C 8.738139 3.535133 -0.440211
C 8.406699 4.136399 0.931364
C 6.934952 4.513352 1.076888
O 9.243489 5.251158 1.140011
H 10.532349 6.996196 -7.609005
H 10.250182 5.228446 -7.588931
H 11.750815 5.902922 -6.884550
H 11.180260 4.916218 -4.734813
H 9.688673 4.245256 -5.434507
H 8.329677 5.680512 -3.889759
H 9.818141 6.326714 -3.174329
H 10.474166 4.025942 -2.436878
H 9.001066 3.363473 -3.163828
H 7.781117 4.868438 -1.649956
H 9.756450 3.115860 -0.396181
H 8.050781 2.699062 -0.678092
H 8.650379 3.385089 1.702280
H 6.637390 5.256120 0.318485
H 6.756677 4.958543 2.067393
H 6.284489 3.630719 0.971697
H 9.338325 5.623295 0.245554