21
H13 C7 N1
C 1.058040 -0.103413 -0.047139
C 2.269227 -0.095730 -0.043413
C 3.732606 -0.070149 -0.050622
C 4.314581 1.057992 -0.909107
C 5.836953 1.065909 -0.892097
N 6.366708 2.121668 -1.732200
C 7.817395 2.180367 -1.759161
C 8.308667 3.326922 -2.626533
H -0.019438 -0.114577 -0.047590
H 4.101103 -1.044365 -0.413508
H 4.088813 0.027319 0.988711
H 3.937827 2.027111 -0.539755
H 3.965716 0.955805 -1.949229
H 6.210644 0.097866 -1.271175
H 6.190899 1.137550 0.160960
H 6.007452 3.017654 -1.401826
H 8.193093 1.223745 -2.162910
H 8.255216 2.272950 -0.740559
H 7.919527 3.233495 -3.652429
H 9.408022 3.343979 -2.671813
H 7.974678 4.297690 -2.224604