21
H13 C6 N1 O1
C 0.892213 -0.085728 0.236224
N 2.334378 -0.134275 0.224161
C 2.918550 -0.068372 1.544652
C 2.973608 -1.080494 -0.659995
C 4.055250 -0.388039 -1.485650
O 4.772129 -1.230133 -2.349503
C 3.193101 -2.512396 -0.227184
C 2.206121 -2.189470 -1.316325
H 0.562777 0.806276 0.792919
H 0.413082 -0.966215 0.718845
H 0.497289 -0.002227 -0.786547
H 2.599875 0.855054 2.054799
H 4.016763 -0.049046 1.477323
H 2.636731 -0.923936 2.196565
H 4.729834 0.154589 -0.795493
H 3.561637 0.372854 -2.112206
H 5.380206 -1.758210 -1.819932
H 2.788409 -2.803807 0.746218
H 4.126086 -3.015876 -0.498190
H 1.143277 -2.307510 -1.093544
H 2.491975 -2.432230 -2.343255