30
H17 C9 N1 O1 F2
O 0.944313 0.120117 0.282302
C 2.351314 0.170863 0.208271
C 2.830703 -0.500432 -1.073030
N 2.318351 0.198763 -2.250343
C 1.015584 -0.225052 -2.713805
C 0.493422 0.751650 -3.732936
F 1.320762 0.784076 -4.820267
F -0.725645 0.351968 -4.184220
C 4.360059 -0.541063 -1.138611
C 5.050754 -1.195968 0.069564
C 6.405543 -1.636211 -0.481007
C 6.048905 -2.212255 -1.853957
C 4.899988 -1.321077 -2.372079
H 0.664916 0.628655 1.050930
H 2.800830 -0.341069 1.078595
H 2.716118 1.216484 0.207077
H 2.470722 -1.552543 -1.052218
H 2.980293 0.102985 -3.016140
H 0.315229 -0.229164 -1.869160
H 1.004085 -1.235883 -3.173292
H 0.408286 1.778423 -3.344489
H 4.710793 0.504392 -1.205095
H 4.475898 -2.081986 0.393966
H 5.134153 -0.521220 0.934543
H 6.927658 -2.354574 0.169197
H 7.061745 -0.756380 -0.595924
H 5.693644 -3.248262 -1.731238
H 6.905996 -2.245469 -2.542970
H 4.106657 -1.930406 -2.834389
H 5.255255 -0.626523 -3.148537