29
H16 C8 N1 O1 F3
C 5.179489 2.052330 -3.493508
C 4.668164 2.318091 -2.082491
C 5.060820 1.221446 -1.095430
C 4.642306 1.464611 0.362840
C 3.127435 1.469045 0.539986
N 5.175743 2.725408 0.875262
C 6.607075 2.755617 1.082327
C 7.019543 4.145667 1.518687
O 8.445031 4.141510 1.688188
C 8.998026 5.210929 2.241852
F 8.729014 6.344003 1.577582
F 8.598190 5.411579 3.506836
F 10.314240 5.047723 2.255153
H 4.883744 2.854144 -4.188048
H 4.782977 1.103699 -3.891568
H 6.279713 1.983816 -3.513115
H 3.570318 2.422831 -2.106715
H 5.057420 3.282902 -1.718648
H 6.154110 1.076091 -1.139772
H 4.624255 0.259215 -1.414920
H 5.042406 0.608974 0.950361
H 2.668753 2.329519 0.028518
H 2.859926 1.531717 1.607178
H 2.682621 0.547472 0.135578
H 4.711379 2.937584 1.757105
H 7.123342 2.525058 0.137586
H 6.962528 2.017583 1.831873
H 6.538128 4.417349 2.471869
H 6.741473 4.887689 0.755465