23
H14 C7 O2
C 6.684758 1.790551 1.888418
C 6.361019 0.353264 1.543085
O 4.967083 0.183947 1.572488
C 4.482827 -1.023539 1.032697
C 2.975901 -0.890547 0.893762
O 2.369160 -0.883842 2.160907
C 4.877680 -2.236241 1.851131
C 4.848360 -3.594511 1.208026
C 6.163099 -2.965770 1.574271
H 7.773408 1.950538 1.881799
H 6.305069 2.042948 2.890475
H 6.226612 2.479540 1.162325
H 6.860659 -0.326947 2.258316
H 6.755682 0.102616 0.536908
H 4.885954 -1.156533 0.005137
H 2.766840 0.043162 0.337224
H 2.615752 -1.733765 0.274069
H 1.414996 -0.877398 2.032342
H 4.552196 -2.181139 2.893901
H 4.589350 -3.646128 0.145627
H 4.488270 -4.438058 1.802413
H 6.791569 -2.595027 0.758796
H 6.716475 -3.372540 2.424882