21
H12 C7 N2
C 2.747778 0.471107 1.440455
C 2.398698 -0.350844 0.202719
N 1.113933 -1.010979 0.399792
C 0.341629 -1.298391 -0.784190
C -0.492784 -0.142935 -1.170684
N -1.128375 0.775693 -1.468172
C 3.564112 -1.273740 -0.164833
C 3.921747 -2.456124 0.692877
C 3.395906 -2.668396 -0.700704
H 3.708867 0.992427 1.311488
H 2.833586 -0.181613 2.324577
H 1.967258 1.220048 1.641384
H 2.260486 0.350164 -0.638282
H 1.180769 -1.827385 1.001082
H -0.342483 -2.138571 -0.594238
H 0.938787 -1.571856 -1.674356
H 4.420535 -0.722194 -0.567050
H 3.252672 -2.707780 1.523003
H 4.978137 -2.652710 0.894036
H 2.386743 -3.079397 -0.790447
H 4.088809 -3.007574 -1.475439