21
H13 C6 N1 O1
O 0.783912 0.270005 -0.253029
C 2.166165 0.133202 -0.022048
C 2.884118 0.622628 -1.279211
N 4.333151 0.585748 -1.289038
C 4.958576 -0.725564 -1.172528
C 5.331424 -0.921572 0.316140
C 5.375157 0.511701 0.891997
C 5.018937 1.419268 -0.309600
H 0.315838 -0.035104 0.531216
H 2.436686 -0.920917 0.180985
H 2.487903 0.729938 0.853150
H 2.559584 1.660236 -1.465714
H 2.513092 0.025330 -2.129131
H 5.878529 -0.741671 -1.784399
H 4.295469 -1.511682 -1.562997
H 6.291991 -1.447046 0.422788
H 4.572533 -1.527495 0.833173
H 6.360851 0.767288 1.308236
H 4.641346 0.629767 1.703165
H 5.949131 1.811770 -0.758599
H 4.401668 2.286660 -0.032486