39
H25 C12 N1 O1
C 4.638523 5.845644 0.084707
C 4.130816 5.089993 -1.122838
O 4.828750 3.879667 -1.239538
C 4.438425 3.106252 -2.339395
C 5.202025 1.785381 -2.338817
N 4.732080 0.935070 -1.246391
C 4.302660 -0.399816 -1.608184
C 2.898639 -0.425369 -2.262100
C 2.280902 -0.844418 -0.903633
C 1.572267 0.274181 -0.155606
C 3.712502 -1.155928 -0.397449
C 6.734313 1.983120 -2.313894
C 7.473967 0.651352 -2.444502
C 7.214820 2.969341 -3.378377
H 4.097791 6.797198 0.196603
H 5.712086 6.066905 -0.017301
H 4.492851 5.254077 1.001559
H 4.262092 5.699171 -2.040925
H 3.042713 4.896668 -1.025449
H 4.611765 3.659866 -3.284595
H 3.354061 2.882951 -2.293705
H 4.945848 1.291587 -3.295070
H 5.418601 0.893328 -0.497370
H 5.073876 -0.960920 -2.174054
H 2.810971 -1.210740 -3.027358
H 2.548488 0.526920 -2.690377
H 1.623123 -1.726190 -0.961350
H 2.221239 1.160654 -0.083342
H 1.304948 -0.038658 0.867220
H 0.644255 0.570799 -0.671593
H 3.948509 -2.229777 -0.420864
H 3.983426 -0.754981 0.592682
H 6.975283 2.415143 -1.326170
H 7.260230 0.173972 -3.415770
H 7.193759 -0.057308 -1.650871
H 8.563009 0.802939 -2.379621
H 6.895361 2.655047 -4.386779
H 8.314641 3.027811 -3.382379
H 6.832356 3.984838 -3.199515