24
H16 C6 N2
C 0.873314 -0.028218 0.012819
C 2.391485 -0.051570 -0.042204
N 2.919035 1.196586 -0.564093
C 4.366356 1.260014 -0.591215
C 4.876144 2.576134 -1.189833
N 4.385492 3.767503 -0.501335
C 6.406885 2.589318 -1.231968
C 6.993048 3.770173 -1.994370
H 0.476577 -0.987614 0.377560
H 0.450789 0.166159 -0.985361
H 0.515244 0.763015 0.692054
H 2.725437 -0.872024 -0.701413
H 2.794766 -0.289806 0.967033
H 2.568803 1.959602 0.014737
H 4.740298 0.420331 -1.202512
H 4.818260 1.132914 0.420571
H 4.500279 2.629834 -2.227633
H 4.561086 3.684587 0.501540
H 3.376941 3.860335 -0.611043
H 6.756016 1.645092 -1.682447
H 6.784540 2.591220 -0.193077
H 6.682800 3.752389 -3.052033
H 8.093686 3.758033 -1.968258
H 6.650019 4.722226 -1.563451