28
H17 C8 N1 O2
C 1.260452 0.195356 0.598624
O 2.546127 -0.355201 0.594256
C 2.909640 -0.945371 -0.623578
C 2.268139 -2.323479 -0.889978
N 3.381344 -3.266234 -0.995705
C 3.076379 -4.490465 -1.725363
C 4.300628 -5.397204 -1.818894
C 1.917740 -5.232177 -1.062453
C 4.519353 -2.499812 -1.463443
C 4.417709 -1.218184 -0.643565
O 5.219263 -0.160070 -1.082806
H 1.090203 0.649645 1.585135
H 0.473287 -0.563932 0.428782
H 1.147533 0.981028 -0.173948
H 2.668058 -0.253753 -1.456015
H 1.670604 -2.297750 -1.825601
H 1.585340 -2.594486 -0.069606
H 2.763507 -4.230982 -2.765567
H 4.693232 -5.617271 -0.812588
H 5.109582 -4.948728 -2.413662
H 4.029302 -6.349337 -2.298746
H 2.168788 -5.475533 -0.016927
H 1.710904 -6.171637 -1.596533
H 0.989772 -4.641963 -1.063200
H 4.456456 -2.251681 -2.550903
H 5.472543 -3.019279 -1.293346
H 4.721825 -1.433463 0.392710
H 4.975699 0.040414 -1.995258