33
H21 C9 N1 O2
C 5.361729 8.455241 6.883086
C 5.413734 6.978375 6.561654
O 5.800120 6.807770 5.223861
C 5.878794 5.469114 4.826597
C 6.307038 5.407796 3.372820
N 6.381236 4.027014 2.931077
C 6.926093 3.812385 1.593290
C 6.327781 2.521823 1.020504
C 6.694904 2.208827 -0.425130
C 8.448203 3.740835 1.624327
O 9.000136 4.976134 1.994263
C 10.393365 4.952813 2.084978
H 5.060384 8.608278 7.930041
H 4.635710 8.969240 6.234639
H 6.348256 8.920552 6.734701
H 4.422471 6.511894 6.737536
H 6.128201 6.463338 7.236299
H 4.896778 4.964883 4.955030
H 6.606867 4.908519 5.447958
H 7.299438 5.866217 3.272762
H 5.604251 6.020174 2.767665
H 5.444598 3.628292 2.965076
H 6.651188 4.647388 0.912106
H 6.612642 1.680320 1.676339
H 5.230585 2.611088 1.096023
H 7.760003 1.959133 -0.544413
H 6.473900 3.062316 -1.086425
H 6.116600 1.346590 -0.790540
H 8.833285 3.448848 0.627504
H 8.750262 2.949241 2.341317
H 10.734608 5.958984 2.367389
H 10.866138 4.680148 1.120722
H 10.747712 4.234731 2.850393