33
H21 C10 N1 O1
C 1.068873 0.022906 -0.426842
C 2.535569 -0.072631 -0.023765
O 2.695508 0.268371 1.343276
C 3.114444 -1.445627 -0.379911
N 4.564537 -1.531191 -0.367158
C 5.116168 -1.598732 0.972089
C 5.055611 -2.602245 -1.222022
C 6.553327 -2.544360 -1.493817
C 7.036428 -3.571846 -2.522777
C 8.444335 -3.082270 -2.871636
C 8.343712 -1.539775 -2.849325
C 7.040581 -1.210758 -2.081708
H 0.658967 0.998091 -0.125627
H 0.476768 -0.765832 0.067935
H 0.940833 -0.087858 -1.514183
H 3.116964 0.681733 -0.578764
H 2.207366 -0.383561 1.862847
H 2.775675 -1.678694 -1.400847
H 2.644314 -2.210864 0.283882
H 4.698062 -0.792276 1.585268
H 6.209479 -1.479958 0.953809
H 4.888880 -2.567099 1.474650
H 4.533869 -2.526093 -2.191246
H 4.798776 -3.604007 -0.803227
H 7.105596 -2.738812 -0.557183
H 6.385262 -3.531059 -3.414801
H 7.016562 -4.606552 -2.146354
H 8.808609 -3.473625 -3.833500
H 9.149261 -3.426089 -2.097183
H 8.304483 -1.132235 -3.871158
H 9.226199 -1.091539 -2.368344
H 6.273018 -0.825272 -2.774105
H 7.180413 -0.440713 -1.308773