36
H22 C12 N1 F1
F 0.607079 0.731903 0.352737
C 1.978420 0.915984 0.483144
C 2.592213 1.249576 -0.856738
C 4.100895 1.449481 -0.763940
C 4.725904 1.807206 -2.110181
N 6.179806 1.928485 -2.062156
C 6.889104 0.751907 -2.535565
C 6.704719 -0.476906 -1.674738
C 5.608339 -1.468779 -1.952301
C 7.039601 -1.826612 -2.244808
C 6.667227 3.136486 -2.693538
C 6.212669 4.488480 -2.105364
C 7.645275 5.016754 -2.326884
C 8.126864 3.553682 -2.415241
H 2.405140 -0.012937 0.896273
H 2.141436 1.728208 1.210562
H 2.110356 2.160287 -1.251650
H 2.364561 0.432574 -1.562574
H 4.570787 0.534054 -0.372579
H 4.332692 2.253027 -0.044183
H 4.295987 2.765570 -2.443791
H 4.418637 1.062561 -2.871662
H 7.963729 0.995499 -2.557792
H 6.604832 0.498859 -3.583805
H 6.957305 -0.319124 -0.620581
H 4.949508 -1.269809 -2.803038
H 5.117120 -1.948140 -1.101066
H 7.349903 -1.869926 -3.293615
H 7.536553 -2.552866 -1.596262
H 6.486998 3.129858 -3.792364
H 5.986194 4.376656 -1.033535
H 5.381777 5.015040 -2.597509
H 8.080768 5.647214 -1.538343
H 7.745025 5.540281 -3.289667
H 8.442659 3.174613 -1.430490
H 8.892161 3.301045 -3.163837