37
H23 C12 N1 O1
C 0.707989 0.763759 -0.252289
C 2.025304 0.950476 -0.352922
C 2.935922 0.231389 -1.304279
C 4.011126 -0.592801 -0.589595
C 4.966347 -1.294058 -1.549841
C 6.028530 -2.118393 -0.827723
N 6.957561 -2.765649 -1.745310
C 8.281638 -3.028323 -1.202655
C 8.331241 -4.266935 -0.306073
C 9.732851 -4.597835 0.160188
O 7.832083 -5.386661 -1.017070
C 6.509623 -5.205768 -1.493423
C 6.097929 -6.470209 -2.216985
C 6.441010 -3.966007 -2.389624
H 0.104841 1.318859 0.472733
H 0.180843 0.049194 -0.895063
H 2.510040 1.674651 0.316057
H 3.435188 0.973223 -1.953494
H 2.344038 -0.422511 -1.966852
H 3.519625 -1.341613 0.056282
H 4.585937 0.065061 0.086535
H 5.472689 -0.550959 -2.189433
H 4.384232 -1.942476 -2.227162
H 5.525991 -2.835021 -0.144058
H 6.612744 -1.444935 -0.179672
H 8.635559 -2.144920 -0.648882
H 8.979752 -3.194771 -2.044282
H 7.684375 -4.087618 0.578776
H 10.395980 -4.767436 -0.702945
H 9.728840 -5.509235 0.776272
H 10.146175 -3.773931 0.760960
H 5.838033 -5.050835 -0.623299
H 6.747022 -6.643339 -3.090012
H 5.057054 -6.395986 -2.565765
H 6.179297 -7.340181 -1.548612
H 5.403231 -3.800207 -2.715675
H 7.040396 -4.166629 -3.296650