32
H20 C9 N1 O1 F1
C 2.724109 -1.148988 -0.997849
C 2.390295 0.001601 -0.051563
C 0.876698 0.213649 0.021939
C 0.407167 1.165668 1.116687
O -0.996203 1.217737 1.217220
N 3.043207 1.234157 -0.485625
C 4.484272 1.270400 -0.303835
C 5.020522 2.651208 -0.660373
C 6.537405 2.817638 -0.580207
C 7.086742 2.636896 0.824827
C 7.284363 1.973330 -1.598930
F 6.777143 4.167461 -0.930003
H 3.803116 -1.362168 -1.021676
H 2.401669 -0.905252 -2.023262
H 2.213693 -2.071175 -0.681145
H 2.737753 -0.289402 0.966468
H 0.523408 0.580820 -0.959080
H 0.388000 -0.758077 0.197766
H 0.825218 2.180448 0.965603
H 0.778729 0.814018 2.093134
H -1.336700 1.548484 0.377649
H 2.646261 2.016824 0.030153
H 4.949484 0.517089 -0.959320
H 4.779212 1.005091 0.734175
H 4.566799 3.401937 0.009602
H 4.700343 2.899951 -1.685203
H 7.000891 1.589710 1.148551
H 6.539649 3.269070 1.540488
H 8.150723 2.916081 0.851193
H 7.192169 0.902843 -1.365858
H 8.353624 2.232657 -1.592351
H 6.886752 2.145165 -2.610488