27
H16 C8 N1 O1 F1
C 2.405827 -0.273409 -2.002950
C 2.337368 -0.563822 -0.512175
O 1.004040 -0.601160 -0.043196
C 3.151753 0.434838 0.318160
N 4.573511 0.400825 0.011521
C 5.307629 -0.630363 0.739205
C 5.707905 0.002169 2.088427
C 5.796716 1.514894 1.784754
C 4.944028 2.316435 2.746838
F 5.015632 3.671455 2.444720
C 5.312707 1.620389 0.313682
H 3.449479 -0.273494 -2.348025
H 1.976659 0.719860 -2.221509
H 1.841723 -1.026777 -2.573092
H 2.736286 -1.575769 -0.328331
H 0.606319 0.257545 -0.234651
H 2.929192 0.236969 1.387172
H 2.771252 1.447072 0.098316
H 6.213010 -0.897311 0.167967
H 4.708640 -1.545329 0.850083
H 6.649991 -0.408928 2.476835
H 4.931945 -0.193290 2.846832
H 6.831890 1.879776 1.871748
H 3.885154 2.015460 2.685249
H 5.288628 2.184831 3.785574
H 6.190955 1.678713 -0.350793
H 4.701219 2.514609 0.126511