15
H8 C4 O3
O 1.134278 -0.457468 -0.948449
C 2.182627 -0.126759 -0.078210
C 2.560548 1.320196 -0.269557
C 3.801952 1.752052 0.534419
O 3.454917 3.019444 1.058634
C 2.219636 3.374162 0.498128
O 1.554255 2.185087 0.225221
H 0.902812 -1.380385 -0.798221
H 3.086743 -0.736944 -0.271730
H 1.906060 -0.271838 0.984321
H 2.716075 1.511448 -1.349122
H 4.698584 1.812815 -0.103951
H 4.011741 1.061296 1.368759
H 2.372326 3.964553 -0.432804
H 1.637374 3.966910 1.219501