27
H14 C8 N1 O1 F3
O 2.541899 -0.778306 0.686056
C 2.463666 0.384421 -0.083672
C 0.997632 0.715688 -0.342084
N 0.332164 1.221367 0.838837
C 0.582346 2.638480 1.058427
C 0.016501 3.102591 2.395345
C -1.475150 2.790868 2.490240
C -1.724425 1.315526 2.184789
C -1.090955 0.915223 0.857064
C 3.215794 0.177485 -1.394986
F 2.645604 -0.748871 -2.174173
F 3.289327 1.308080 -2.108123
F 4.473558 -0.227781 -1.164176
H 3.432620 -0.849812 1.049921
H 2.962898 1.240529 0.404814
H 0.923583 1.422063 -1.195687
H 0.510560 -0.219480 -0.656686
H 0.135416 3.246972 0.236935
H 1.667310 2.823209 1.029504
H 0.201604 4.181553 2.516185
H 0.555799 2.585671 3.207611
H -2.021980 3.410899 1.757327
H -1.867017 3.054505 3.485361
H -2.803588 1.097204 2.155239
H -1.287064 0.694271 2.985214
H -1.623583 1.434416 0.025798
H -1.218037 -0.165841 0.690851