36
H23 C10 N1 O2
C 1.209692 0.168942 -0.857911
C 2.705348 0.148740 -0.566331
C 3.059915 0.751016 0.791145
C 4.556542 0.704139 1.076493
N 4.961958 1.383437 2.299075
C 4.386336 0.805451 3.514945
C 3.188083 1.572488 4.059526
C 6.394603 1.598230 2.366326
C 6.786431 2.902090 3.049314
O 6.412644 2.882720 4.397572
C 5.818223 4.049481 4.909067
O 8.165132 3.018359 2.891739
C 8.729527 4.214977 3.354905
H 0.984490 -0.268172 -1.843100
H 0.816554 1.198689 -0.851479
H 0.648260 -0.404221 -0.102058
H 3.243418 0.696570 -1.359670
H 3.075081 -0.890781 -0.610388
H 2.504719 0.209942 1.575959
H 2.723085 1.801692 0.835062
H 5.078886 1.186601 0.234356
H 4.885096 -0.361656 1.077353
H 5.161524 0.789205 4.293279
H 4.102689 -0.251790 3.335486
H 3.466580 2.612944 4.282582
H 2.825297 1.109358 4.991484
H 2.350314 1.594195 3.347493
H 6.796237 1.659986 1.345236
H 6.935694 0.770609 2.871485
H 6.271959 3.750048 2.547200
H 5.439414 3.813119 5.913450
H 4.968417 4.384987 4.288690
H 6.533020 4.886510 4.997404
H 9.772232 4.248285 3.008744
H 8.729879 4.275356 4.457381
H 8.199482 5.100213 2.954389