27
H14 C8 N1 O1 F3
F 0.971624 -0.107678 0.385241
C 2.249189 0.153650 0.141047
F 2.310633 1.308130 -0.538505
F 2.853084 0.377027 1.318206
O 2.770407 -0.867332 -0.522565
C 4.146983 -0.767828 -0.921179
C 4.558509 -2.109652 -1.491702
N 5.950972 -2.045496 -1.885078
C 6.416791 -3.047825 -2.831430
C 6.051477 -4.521319 -2.577704
C 6.416467 -5.185651 -3.902787
C 5.920385 -4.185441 -4.966084
C 5.954325 -2.798276 -4.284730
H 4.762849 -0.509738 -0.045072
H 4.256390 0.022399 -1.678848
H 3.933349 -2.318244 -2.373983
H 4.333800 -2.899747 -0.748577
H 6.537770 -2.064207 -1.054250
H 7.517798 -2.984146 -2.815223
H 4.966668 -4.616847 -2.397250
H 6.575671 -4.944999 -1.706663
H 5.982065 -6.189159 -4.024913
H 7.512109 -5.295476 -3.967690
H 4.890390 -4.437658 -5.262980
H 6.530898 -4.222465 -5.880445
H 4.953867 -2.338276 -4.285529
H 6.625410 -2.089097 -4.791767