36
H23 C11 N1 O1
C 7.362215 2.976716 -7.050789
C 6.822921 3.096071 -5.623033
C 7.770356 3.916591 -4.747880
C 5.359117 3.601616 -5.610473
C 5.224003 4.964104 -6.304950
C 3.786453 5.467460 -6.353370
C 3.196978 5.482421 -4.951205
C 3.367093 4.118852 -4.303958
N 4.765272 3.687232 -4.258881
C 4.925186 2.525399 -3.391236
C 5.181106 2.952203 -1.914704
C 3.947198 2.943931 -1.017743
O 5.804926 4.213482 -1.908308
H 8.303136 2.404790 -7.052769
H 7.578472 3.959769 -7.497691
H 6.652256 2.452992 -7.711355
H 6.814603 2.068435 -5.228101
H 7.868437 4.950274 -5.116981
H 8.777592 3.470626 -4.754583
H 7.428320 3.963676 -3.704486
H 4.772228 2.868311 -6.209656
H 5.622915 4.888900 -7.326447
H 5.846633 5.699353 -5.767507
H 3.184936 4.798433 -6.994139
H 3.746648 6.468232 -6.811956
H 2.127865 5.746603 -4.968194
H 3.711404 6.240584 -4.335736
H 2.756481 3.369731 -4.855611
H 2.977538 4.145692 -3.278452
H 5.792580 1.946391 -3.721156
H 4.054528 1.844794 -3.449338
H 5.889395 2.217156 -1.491639
H 3.198851 3.683569 -1.340070
H 4.235571 3.190284 0.015916
H 3.472717 1.949759 -1.011735
H 5.594448 4.561426 -2.800188