34
H22 C10 N1 F1
C 6.817432 -0.835519 -3.154478
C 6.212625 -1.070064 -1.771404
C 4.803085 -0.497204 -1.514128
C 3.838759 -0.800853 -2.659788
C 4.813450 1.000751 -1.125000
C 3.446416 1.480409 -0.639687
N 5.302907 1.870763 -2.198360
C 6.576209 2.516553 -1.945363
C 6.996235 3.389185 -3.119531
C 8.344725 4.067607 -2.904055
C 8.738312 4.937558 -4.075790
F 9.971259 5.532619 -3.838802
H 7.841273 -1.239550 -3.200153
H 6.858444 0.231563 -3.411882
H 6.234522 -1.340801 -3.940531
H 6.896209 -0.674641 -0.999560
H 6.171559 -2.160062 -1.599895
H 4.428614 -1.020727 -0.615892
H 4.061820 -0.175085 -3.538317
H 2.792802 -0.613621 -2.372735
H 3.908430 -1.856253 -2.969057
H 5.505861 1.085491 -0.265301
H 2.719792 1.521953 -1.467373
H 3.525140 2.492948 -0.213092
H 3.036887 0.814898 0.135701
H 4.608591 2.583050 -2.410809
H 7.342589 1.739071 -1.783654
H 6.565074 3.132596 -1.018775
H 6.219906 4.156310 -3.292396
H 7.027215 2.768150 -4.031207
H 9.128589 3.307230 -2.748790
H 8.315084 4.691391 -1.994852
H 8.002133 5.741523 -4.240789
H 8.821911 4.345595 -5.002084