32
H19 C9 N1 O1 F2
C 2.091755 -2.245445 1.594925
C 2.000993 -0.747692 1.873065
C 3.042517 0.132608 1.157384
C 2.892088 0.034102 -0.363578
C 4.512303 -0.126077 1.531789
N 4.928322 0.348818 2.848420
C 4.579579 -0.519371 3.966209
C 3.703487 0.166667 5.013921
O 3.325331 -0.712038 6.043696
C 6.283083 0.852846 2.879355
C 6.524994 1.901632 3.941793
F 6.612007 1.349427 5.186695
F 7.727270 2.497312 3.712518
H 1.313518 -2.789933 2.152111
H 3.064228 -2.665439 1.897311
H 1.949988 -2.474922 0.527289
H 2.050062 -0.576862 2.958974
H 1.001582 -0.391146 1.569370
H 2.835559 1.176541 1.451573
H 3.233795 -0.942816 -0.743261
H 3.485919 0.809378 -0.872827
H 1.841374 0.160335 -0.669277
H 5.121720 0.408512 0.788625
H 4.749817 -1.202642 1.396379
H 5.485875 -0.907508 4.466064
H 4.038714 -1.404104 3.591266
H 2.827550 0.620979 4.512086
H 4.259637 0.988067 5.487783
H 2.772677 -1.400748 5.655399
H 6.495193 1.359550 1.927532
H 7.052904 0.061855 3.012434
H 5.741916 2.676034 3.963917