31
H18 C9 N1 F3
C 5.900831 -4.111847 1.793087
C 5.355253 -3.066878 0.825928
C 6.166582 -2.891631 -0.464586
C 6.191090 -4.160036 -1.316785
C 5.629578 -1.693132 -1.254639
N 6.402935 -1.422561 -2.452537
C 6.240363 -0.098559 -3.030379
C 4.820748 0.224144 -3.504628
C 7.222805 0.087257 -4.188542
C 8.667397 -0.191686 -3.859895
F 9.048398 0.349891 -2.692650
F 8.961626 -1.497601 -3.799247
F 9.478402 0.326734 -4.802495
H 5.321076 -4.121976 2.729153
H 6.951179 -3.902068 2.054150
H 5.858632 -5.128587 1.372862
H 5.309799 -2.092671 1.342973
H 4.311920 -3.318824 0.561781
H 7.208735 -2.649514 -0.185087
H 5.174176 -4.430133 -1.650831
H 6.601225 -5.016922 -0.761620
H 6.820401 -4.027121 -2.210365
H 5.680984 -0.797363 -0.612215
H 4.550289 -1.861299 -1.461559
H 6.209904 -2.125242 -3.165104
H 6.511728 0.628008 -2.244562
H 4.499439 -0.493488 -4.277836
H 4.763246 1.237244 -3.931882
H 4.104933 0.172376 -2.671094
H 7.174766 1.125316 -4.546831
H 6.956580 -0.563269 -5.036996