33
H21 C10 N1 O1
C 1.120083 -0.179247 0.486778
C 2.568122 0.085587 0.097735
C 2.992860 -0.629168 -1.187689
O 2.107656 -0.325384 -2.252942
C 4.458996 -0.336843 -1.518954
N 5.057484 -1.222623 -2.508017
C 4.702528 -0.840021 -3.862545
C 6.499790 -1.355113 -2.329495
C 6.895802 -1.977797 -0.968083
C 8.138346 -2.860036 -1.231961
C 8.512257 -2.606848 -2.699180
C 7.176615 -2.272146 -3.356716
H 0.847457 0.365395 1.403564
H 0.949546 -1.252743 0.669515
H 0.433845 0.134025 -0.313648
H 3.240141 -0.229062 0.912966
H 2.730055 1.171572 -0.034429
H 2.899150 -1.718389 -1.039640
H 2.158627 0.627028 -2.408350
H 5.016794 -0.437742 -0.578532
H 4.553717 0.734040 -1.816963
H 3.616539 -0.707964 -3.929893
H 4.992658 -1.618251 -4.582569
H 5.186206 0.113237 -4.176703
H 6.986068 -0.354286 -2.414537
H 6.053680 -2.584992 -0.600726
H 7.094638 -1.206550 -0.209840
H 7.883271 -3.922073 -1.091933
H 8.967871 -2.639316 -0.544087
H 9.024095 -3.459841 -3.169347
H 9.187180 -1.737756 -2.776873
H 6.566908 -3.186094 -3.472287
H 7.289744 -1.811159 -4.348730