36
H23 C11 N1 O1
C 1.082557 0.070065 0.027853
C 2.584630 0.184370 -0.105479
O 3.073849 -0.925719 -0.810653
C 4.460707 -0.914275 -0.988309
C 4.871807 -2.153766 -1.762172
N 6.307995 -2.177948 -1.943923
C 6.817152 -3.156718 -2.893256
C 8.330785 -2.978245 -3.040610
C 8.924443 -3.916875 -4.090144
C 8.565100 -5.375352 -3.808170
C 7.052183 -5.547364 -3.668390
C 6.443702 -4.632022 -2.593479
C 6.819421 -5.063976 -1.175331
H 0.680916 0.934036 0.577912
H 0.808789 -0.846029 0.573382
H 0.605422 0.038022 -0.963649
H 3.056181 0.240299 0.897268
H 2.853292 1.122661 -0.632852
H 4.981690 -0.896195 -0.007245
H 4.788032 -0.009150 -1.539244
H 4.389770 -2.127335 -2.754161
H 4.463839 -3.042023 -1.237050
H 6.768704 -2.302254 -1.043131
H 6.362409 -2.914279 -3.873035
H 8.815433 -3.161527 -2.064507
H 8.535929 -1.926686 -3.296833
H 10.018083 -3.789977 -4.136321
H 8.533634 -3.636226 -5.084756
H 9.067833 -5.704888 -2.882343
H 8.944693 -6.024258 -4.614012
H 6.802821 -6.598421 -3.446408
H 6.580326 -5.313584 -4.639494
H 5.346514 -4.715788 -2.677725
H 7.900508 -4.984452 -0.981563
H 6.529769 -6.112386 -1.000938
H 6.303362 -4.452436 -0.418550