32
H21 C9 N1 O1
C 0.797668 -0.316423 -0.299215
C 2.281592 -0.192727 0.027959
C 3.035616 -1.503868 -0.170253
C 4.552666 -1.446737 0.032962
C 4.957024 -0.946466 1.434937
C 5.280983 0.541503 1.509197
N 5.091714 -2.785356 -0.203490
C 6.498665 -2.817133 -0.549224
C 6.999906 -4.247537 -0.610386
O 8.358065 -4.241976 -0.944935
C 8.913771 -5.519994 -1.025655
H 0.269635 0.636721 -0.141291
H 0.312688 -1.076137 0.335384
H 0.642920 -0.614614 -1.349044
H 2.393519 0.149368 1.070061
H 2.734989 0.590551 -0.604279
H 2.840876 -1.870290 -1.194942
H 2.628667 -2.270709 0.514072
H 4.963855 -0.729717 -0.713774
H 5.841241 -1.513508 1.766183
H 4.157312 -1.200758 2.152509
H 6.135146 0.788656 0.857610
H 5.548703 0.838592 2.535262
H 4.434408 1.169188 1.192835
H 4.565514 -3.222258 -0.958851
H 7.078167 -2.282206 0.220840
H 6.721967 -2.314674 -1.514676
H 6.414290 -4.821624 -1.360097
H 6.830760 -4.738338 0.369836
H 9.976182 -5.415890 -1.289136
H 8.420557 -6.139339 -1.800892
H 8.843973 -6.064911 -0.063467