29
H19 C9 N1
C 1.327908 0.658036 -0.734211
C 2.171956 -0.140072 -0.077971
C 3.050463 -1.181678 -0.706090
C 4.540443 -0.924883 -0.462097
C 5.415981 -2.030870 -1.043343
N 6.841139 -1.741201 -1.011804
C 7.361525 -1.686938 0.339135
C 7.592281 -2.657911 -1.856720
C 9.008904 -2.193747 -2.184303
C 9.692923 -3.104522 -3.196924
H 0.719764 1.401883 -0.210434
H 1.210904 0.596094 -1.822335
H 2.258360 -0.038051 1.012409
H 2.850261 -1.236387 -1.789392
H 2.789497 -2.169473 -0.284375
H 4.710580 -0.824361 0.622535
H 4.833380 0.035479 -0.919437
H 5.128748 -2.177431 -2.097510
H 5.184547 -2.990591 -0.523119
H 6.842833 -0.918379 0.929269
H 8.427338 -1.419612 0.335965
H 7.256566 -2.657125 0.876793
H 7.040740 -2.764504 -2.805491
H 7.635095 -3.679160 -1.408839
H 9.621113 -2.150517 -1.269009
H 8.954094 -1.163125 -2.573905
H 9.763184 -4.138442 -2.821223
H 10.715398 -2.761275 -3.416494
H 9.138573 -3.134469 -4.149101