37
H24 C10 N2 O1
C 9.034065 9.250832 -0.092138
N 8.590042 8.928673 1.249763
C 7.138804 8.793597 1.413724
C 6.680456 9.537536 2.663714
C 6.712692 7.321477 1.478251
C 7.176758 6.489326 0.294066
N 6.782694 5.100074 0.446243
C 7.045250 4.203499 -0.675489
C 6.352521 2.876920 -0.379979
C 8.557351 4.052123 -0.919158
C 8.949877 2.810297 -1.710345
O 8.995522 5.208517 -1.616498
C 10.299375 5.612861 -1.322602
H 10.127409 9.381081 -0.101204
H 8.579203 10.175520 -0.506890
H 8.799290 8.432586 -0.790024
H 8.933683 9.644648 1.884650
H 6.627661 9.254270 0.542520
H 7.195118 9.143292 3.556001
H 5.597528 9.422700 2.820481
H 6.902153 10.613848 2.587482
H 5.611191 7.274357 1.556124
H 7.118573 6.872756 2.402259
H 8.271525 6.548472 0.242873
H 6.796850 6.937510 -0.650855
H 5.783440 5.069542 0.643091
H 6.634313 4.608257 -1.628057
H 6.803110 2.384720 0.496890
H 6.399509 2.187482 -1.233777
H 5.287798 3.051612 -0.158027
H 9.041932 4.018112 0.077216
H 8.396685 2.764095 -2.661941
H 8.759345 1.886142 -1.146543
H 10.025099 2.838488 -1.942963
H 10.546224 6.461913 -1.976490
H 11.045847 4.816031 -1.503143
H 10.404053 5.944077 -0.269904