36
H23 C11 N1 O1
C 0.732274 -0.461695 0.597001
C 2.133787 -0.116360 0.107826
C 2.787153 1.017629 0.894022
C 4.192319 1.368232 0.412872
C 4.839121 2.505020 1.198122
C 6.249611 2.832984 0.716160
N 6.869617 3.907610 1.481854
C 8.324619 3.869139 1.540233
C 8.975999 4.413336 0.274697
O 8.526293 5.721749 0.005395
C 7.116940 5.791778 -0.141560
C 6.748212 7.231507 -0.427924
C 6.429016 5.248421 1.115724
H 0.288876 -1.280752 0.009556
H 0.057717 0.406831 0.520288
H 0.745122 -0.777724 1.653027
H 2.094109 0.160323 -0.960525
H 2.775885 -1.012977 0.164875
H 2.826377 0.743396 1.963926
H 2.147039 1.916777 0.835560
H 4.152680 1.639318 -0.657713
H 4.832779 0.469672 0.474308
H 4.887410 2.245476 2.269716
H 4.199805 3.401911 1.125268
H 6.219330 3.040086 -0.374532
H 6.876015 1.933532 0.832607
H 8.663589 2.839499 1.732373
H 8.655158 4.491240 2.391604
H 8.756156 3.747448 -0.585199
H 10.069614 4.462170 0.389035
H 6.821381 5.162293 -1.006980
H 7.024814 7.876460 0.421178
H 5.665692 7.327034 -0.599948
H 7.275434 7.593709 -1.322922
H 5.337863 5.259047 0.973596
H 6.655595 5.935353 1.951890