26
H16 C7 N1 O1 F1
C 2.619162 -3.151063 -0.655402
C 2.136094 -2.401234 0.576713
O 2.035344 -3.263288 1.697659
C 2.954896 -1.130739 0.895042
C 2.615959 0.003357 -0.066714
N 4.395531 -1.353041 0.864705
C 4.951713 -2.159787 1.936206
C 6.462837 -1.987457 2.007254
C 7.092684 -2.865546 3.064005
F 8.464098 -2.652498 3.101488
H 2.616580 -2.504719 -1.545603
H 1.962801 -4.011495 -0.854625
H 3.647544 -3.519567 -0.513906
H 1.102961 -2.058612 0.397530
H 2.831180 -3.804918 1.733562
H 2.620934 -0.829499 1.912700
H 2.925734 -0.240264 -1.095072
H 3.134221 0.929115 0.229562
H 1.535572 0.210621 -0.069042
H 4.854132 -0.443789 0.879290
H 4.735435 -3.227373 1.753450
H 4.502991 -1.916308 2.923294
H 6.704787 -0.934148 2.230202
H 6.903314 -2.225608 1.025439
H 6.922504 -3.933529 2.850643
H 6.688540 -2.640564 4.064529