18
H11 C5 N1 O1
C 0.974589 -0.164974 0.266596
N 2.381753 0.086930 0.043827
C 2.630470 1.477052 -0.278516
C 3.195266 -0.389959 1.144936
C 4.665251 -0.430722 0.819616
C 5.676217 -0.401284 1.875593
O 5.434537 0.736673 1.070758
H 0.391069 0.140004 -0.615870
H 0.567898 0.385026 1.145196
H 0.799534 -1.239101 0.433762
H 2.031303 1.770838 -1.154076
H 3.689208 1.638942 -0.524941
H 2.371050 2.165526 0.557437
H 2.880874 -1.419277 1.385138
H 3.052914 0.216051 2.069571
H 4.910665 -0.938655 -0.123559
H 6.639313 -0.902515 1.719443
H 5.358207 -0.318485 2.922979