38
H25 C11 N1 O1
C 9.285842 5.320562 5.874077
C 8.931296 4.701822 4.527142
C 9.099965 5.665087 3.354675
C 8.745078 5.053459 2.002347
C 8.915335 6.017061 0.832397
C 8.564065 5.398946 -0.515258
N 8.726299 6.362749 -1.588413
C 8.254174 5.975104 -2.907028
C 8.298899 7.188285 -3.834413
C 8.977596 4.731700 -3.531135
C 8.220221 3.433835 -3.300773
O 10.284999 4.552798 -3.027236
C 11.267943 5.390402 -3.561934
H 9.154826 4.600769 6.697075
H 8.650203 6.194681 6.091194
H 10.334035 5.661455 5.892843
H 7.888303 4.339744 4.550541
H 9.558059 3.809143 4.354561
H 10.144027 6.026907 3.328436
H 8.473866 6.559696 3.525615
H 7.700664 4.693267 2.029001
H 9.370177 4.158261 1.832459
H 9.961764 6.372204 0.800936
H 8.289897 6.913603 0.985765
H 7.508684 5.071777 -0.502781
H 9.173667 4.484896 -0.659965
H 9.706426 6.634717 -1.646147
H 7.192493 5.692695 -2.791028
H 9.332615 7.530904 -4.001754
H 7.732505 8.023716 -3.396070
H 7.862548 6.951507 -4.816809
H 9.044575 4.892256 -4.626434
H 8.093209 3.224824 -2.228385
H 8.761562 2.590894 -3.756156
H 7.220881 3.489644 -3.757950
H 12.246954 5.010210 -3.234570
H 11.183166 6.438921 -3.220283
H 11.248313 5.393159 -4.669213