29
H16 C8 N1 O1 F3
C 1.689870 1.172185 -0.376586
O 2.747173 0.277318 -0.199878
C 3.447517 0.001622 -1.379880
C 4.558836 -1.010542 -1.099329
C 3.990599 -2.345212 -0.634109
N 5.416900 -1.209959 -2.261757
C 6.402929 -0.165842 -2.531439
C 7.621149 -0.347065 -1.628870
C 6.739287 -0.243164 -4.023489
C 7.717356 0.778252 -4.537855
F 7.398733 2.029282 -4.167602
F 8.977024 0.564726 -4.125234
F 7.755481 0.771640 -5.879909
H 1.207433 1.329592 0.598746
H 0.931236 0.782804 -1.083784
H 2.036169 2.153040 -0.758028
H 3.881840 0.932827 -1.797340
H 2.765129 -0.411363 -2.154661
H 5.177294 -0.592941 -0.287663
H 3.400223 -2.812831 -1.440185
H 3.331581 -2.209525 0.235326
H 4.802708 -3.035803 -0.361931
H 4.831359 -1.365175 -3.081210
H 5.985694 0.844030 -2.344895
H 8.146903 -1.283857 -1.872293
H 7.311859 -0.394799 -0.574288
H 8.326916 0.490270 -1.723917
H 5.817898 -0.100837 -4.608933
H 7.141737 -1.237075 -4.274027