26
H16 C8 N1 F1
C 3.444461 0.163981 -1.749844
C 4.492542 1.023898 -1.046992
C 5.106128 2.053918 -1.982945
F 5.629568 1.442505 -3.113555
N 3.982033 1.745201 0.109334
C 3.847119 0.980836 1.345589
C 2.541204 1.339296 2.047156
C 5.028766 1.200962 2.287474
C 6.396663 1.575520 1.794317
C 5.557751 2.584981 2.531483
H 3.877842 -0.380419 -2.601829
H 2.621550 0.794041 -2.127588
H 3.018875 -0.576067 -1.054754
H 5.310893 0.371851 -0.698571
H 5.918714 2.596520 -1.475447
H 4.343512 2.780578 -2.312652
H 3.097066 2.185225 -0.131800
H 3.812099 -0.102805 1.116669
H 2.504425 2.418636 2.269133
H 2.443091 0.794648 2.998071
H 1.673713 1.086559 1.416974
H 5.006663 0.538332 3.159576
H 6.531292 1.733260 0.721174
H 7.262591 1.145547 2.305308
H 5.120870 3.388111 1.930284
H 5.845187 2.867416 3.547858