31
H19 C9 N1 O2
C 0.993206 0.323223 -0.038573
C 2.252111 0.754218 0.046506
C 3.094005 1.174139 -1.123911
N 4.380522 0.493862 -1.187004
C 4.266885 -0.939822 -1.416614
C 4.312525 -1.764354 -0.138472
O 4.339071 -3.118954 -0.492209
C 4.359081 -3.978397 0.607415
C 5.351441 1.171017 -2.033064
C 6.773918 1.235896 -1.460027
C 7.483761 -0.105291 -1.350259
O 7.540411 2.146484 -2.226422
H 0.415376 0.063502 0.853471
H 0.491365 0.216082 -1.006930
H 2.735003 0.842016 1.028086
H 3.293574 2.253076 -1.016445
H 2.508402 1.045743 -2.061200
H 5.098673 -1.279723 -2.051162
H 3.336536 -1.185557 -1.967500
H 3.436701 -1.547595 0.502986
H 5.213236 -1.487330 0.446779
H 4.382385 -5.012514 0.234444
H 3.461929 -3.857218 1.246184
H 5.251195 -3.816615 1.244371
H 5.037176 2.216266 -2.166627
H 5.395632 0.727180 -3.051519
H 6.697263 1.682564 -0.454628
H 7.535597 -0.601009 -2.334879
H 6.975907 -0.784804 -0.651579
H 8.511524 0.047762 -0.987838
H 7.678080 1.748653 -3.095314