23
H15 C7 N1
C 0.931128 -0.068166 -0.051039
C 2.456701 -0.087498 0.043696
C 2.958818 -1.517238 -0.135814
N 3.018966 0.834156 -0.961463
C 4.453262 0.717810 -1.218640
C 5.159511 1.464794 -0.071599
C 4.144542 2.564393 0.306991
C 2.901294 2.238493 -0.562065
H 0.485855 -0.708493 0.726081
H 0.609490 -0.441554 -1.036941
H 0.517410 0.942628 0.078090
H 2.736997 0.234207 1.070759
H 2.810863 -1.854466 -1.175118
H 2.393625 -2.192762 0.523509
H 4.022396 -1.630938 0.118174
H 4.664651 1.229545 -2.173614
H 4.775960 -0.323083 -1.338712
H 6.137330 1.865270 -0.377311
H 5.335020 0.782833 0.775172
H 4.521275 3.575866 0.094838
H 3.900007 2.529539 1.379126
H 2.908207 2.864088 -1.470412
H 1.953623 2.433877 -0.043496