28
H16 C9 N1 O1 F1
F 1.297326 0.324868 1.597149
C 2.652328 0.252516 1.309249
C 3.035836 -1.124647 0.828591
C 2.183212 -1.621967 -0.342058
N 2.522383 -2.979657 -0.736234
C 3.699419 -3.125323 -1.581999
C 3.417543 -3.870379 -2.877934
C 2.364641 -4.939012 -2.956642
C 2.152606 -3.616473 -3.644723
C 2.479028 -3.866420 0.419077
C 3.320421 -3.336054 1.573893
O 2.938800 -2.021092 1.917318
H 3.209657 0.499775 2.226151
H 2.879155 0.998825 0.531861
H 4.094173 -1.055595 0.496928
H 2.285978 -0.944811 -1.203161
H 1.126961 -1.597920 -0.024909
H 4.517866 -3.641910 -1.047041
H 4.098926 -2.129378 -1.837068
H 4.316771 -4.041167 -3.479797
H 1.768571 -5.128851 -2.059731
H 2.565679 -5.820436 -3.571853
H 1.425671 -2.937126 -3.189241
H 2.201222 -3.580424 -4.736570
H 2.819321 -4.872223 0.131227
H 1.431493 -3.957669 0.756634
H 4.395815 -3.358245 1.303145
H 3.187416 -3.956396 2.472634