33
H21 C10 N1 O1
C 2.667716 2.239901 2.015369
O 2.392782 2.206195 0.641337
C 2.836576 1.064998 -0.078189
C 2.239343 -0.238155 0.435346
C 4.361592 1.010061 -0.156397
N 4.887393 2.257769 -0.670188
C 6.326977 2.403429 -0.530235
C 6.808150 3.812574 -0.956485
C 7.966146 3.596822 -1.952579
C 8.438129 2.151158 -1.719427
C 9.436782 2.040767 -0.567098
C 7.114286 1.432864 -1.427318
H 2.286015 3.197762 2.397108
H 3.749333 2.193307 2.240690
H 2.165481 1.428543 2.572375
H 2.463037 1.246584 -1.098883
H 2.664718 -0.537309 1.405831
H 2.439749 -1.048883 -0.280903
H 1.148801 -0.141659 0.547154
H 4.638056 0.176578 -0.823803
H 4.777906 0.751454 0.843427
H 4.424114 3.015225 -0.169237
H 6.633071 2.222516 0.523174
H 7.130368 4.394475 -0.080053
H 5.977941 4.365540 -1.422026
H 8.777521 4.331527 -1.832392
H 7.594206 3.693174 -2.985077
H 8.911149 1.741637 -2.626764
H 9.036150 2.470436 0.365550
H 10.370332 2.576169 -0.802528
H 9.695068 0.989094 -0.364222
H 7.252807 0.438025 -0.975346
H 6.547434 1.301470 -2.365130