36
H23 C11 N1 O1
C 1.585396 0.810293 -0.275789
C 2.395732 -0.142533 0.188500
C 3.062650 -1.198480 -0.643232
C 4.589846 -1.137746 -0.565208
C 5.270603 -2.237781 -1.370056
N 6.714605 -2.098274 -1.300252
C 7.535709 -3.118163 -1.963396
C 7.420207 -4.500557 -1.303619
C 7.173777 -3.210116 -3.447447
C 8.975784 -2.603560 -1.829059
O 9.877217 -3.504347 -2.402376
C 11.216337 -3.090144 -2.332080
C 12.096795 -4.134205 -2.980956
H 1.136588 1.553940 0.389849
H 1.337607 0.881463 -1.341184
H 2.618558 -0.171242 1.263837
H 2.737647 -1.107662 -1.693343
H 2.729912 -2.192203 -0.292303
H 4.906046 -1.212622 0.491025
H 4.944715 -0.158559 -0.928544
H 4.948801 -2.157362 -2.421373
H 4.904158 -3.222223 -1.008723
H 6.985956 -2.064270 -0.317393
H 6.399425 -4.902762 -1.392759
H 7.672215 -4.437746 -0.231945
H 8.110614 -5.216067 -1.773088
H 6.194428 -3.687377 -3.601943
H 7.928452 -3.809172 -3.976034
H 7.145954 -2.206565 -3.900960
H 9.209993 -2.454626 -0.753033
H 9.044901 -1.609044 -2.314321
H 11.514611 -2.938390 -1.274625
H 11.340959 -2.111716 -2.839180
H 11.995376 -5.102538 -2.467398
H 13.151853 -3.826101 -2.934180
H 11.822823 -4.272204 -4.038123