30
H19 C10 N1
C 1.512698 0.383216 0.729923
C 2.929897 0.233452 0.170643
N 3.053230 0.039686 -1.264288
C 2.499695 -1.213051 -1.747721
C 2.887134 -1.469799 -3.205108
C 2.579232 -0.294221 -4.147775
C 1.124696 -0.174014 -4.606006
C 0.452334 -1.277465 -5.376613
C -0.052697 -0.903347 -4.011835
C 3.087221 1.005226 -3.503957
C 2.609187 1.166095 -2.066527
H 1.552707 0.527767 1.820777
H 0.897711 -0.509606 0.536730
H 0.993117 1.253538 0.299199
H 3.423166 -0.619817 0.667393
H 3.516297 1.129125 0.439325
H 1.395023 -1.236306 -1.641173
H 2.888751 -2.033306 -1.122030
H 2.400873 -2.395023 -3.555568
H 3.973317 -1.656085 -3.239813
H 3.168434 -0.450496 -5.067850
H 0.887204 0.831425 -4.971642
H 0.990749 -2.226736 -5.467206
H -0.145346 -1.012209 -6.253123
H 0.120789 -1.616848 -3.203748
H -1.001290 -0.364289 -3.935670
H 2.775703 1.875253 -4.104250
H 4.190170 0.992901 -3.496997
H 1.501215 1.279005 -2.055583
H 3.024383 2.091481 -1.635086