31
H19 C9 N1 O2
C 0.782442 0.034747 -0.018475
O 2.172713 -0.090919 -0.019224
C 2.745408 0.095927 -1.281299
C 4.249520 -0.065223 -1.169450
N 4.854293 0.089464 -2.479614
C 6.306274 0.014425 -2.552993
C 6.845606 -1.290713 -1.974454
O 6.920973 -1.217135 -0.576477
C 7.267161 -2.430783 0.020949
C 6.780267 0.136575 -3.996366
C 6.155366 -0.682077 -5.092425
C 5.991974 0.814289 -5.081639
H 0.424114 -0.129076 1.008014
H 0.297787 -0.709387 -0.681087
H 0.455872 1.041707 -0.345960
H 2.498366 1.104485 -1.677379
H 2.350539 -0.638778 -2.012760
H 4.463568 -1.067748 -0.772270
H 4.635766 0.656923 -0.420220
H 4.569860 0.994887 -2.849705
H 6.787593 0.827730 -1.966735
H 7.852378 -1.488269 -2.394397
H 6.191473 -2.128393 -2.293583
H 7.328294 -2.271992 1.107081
H 8.248402 -2.802751 -0.334415
H 6.514151 -3.219161 -0.176171
H 7.865364 0.264471 -4.065649
H 5.273935 -1.271802 -4.826255
H 6.808252 -1.135120 -5.843275
H 4.998247 1.208939 -4.853441
H 6.549511 1.403177 -5.814867