35
H23 C10 N1 O1
C 8.180696 -2.888893 2.252016
C 6.989701 -2.880903 1.299942
C 6.385177 -1.485395 1.141048
C 5.244147 -1.323706 0.114848
C 3.848977 -1.692231 0.642773
C 3.611025 -3.151160 1.020223
N 5.510609 -2.070320 -1.108497
C 6.614388 -1.601481 -1.937471
C 6.282928 -0.338631 -2.737090
C 7.070876 -2.715730 -2.869707
O 7.699009 -3.733140 -2.143002
C 8.066823 -4.830020 -2.923313
H 8.607303 -3.899060 2.356300
H 7.896234 -2.542773 3.259835
H 8.984558 -2.225398 1.891458
H 6.229203 -3.587960 1.665017
H 7.296333 -3.253034 0.310179
H 7.202540 -0.796408 0.862543
H 6.019812 -1.118730 2.116697
H 5.185963 -0.231747 -0.087878
H 3.629142 -1.045069 1.507956
H 3.122186 -1.404435 -0.138334
H 4.152091 -3.433051 1.935704
H 3.932881 -3.829665 0.215684
H 2.540712 -3.331601 1.206503
H 4.665014 -2.097598 -1.677648
H 7.466164 -1.383749 -1.272688
H 5.495169 -0.546885 -3.480962
H 7.163962 0.046411 -3.273618
H 5.918720 0.461750 -2.075611
H 7.766917 -2.304285 -3.629446
H 6.192672 -3.112653 -3.422837
H 8.561395 -5.563489 -2.270487
H 8.772190 -4.549283 -3.730609
H 7.190454 -5.316990 -3.395129