26
H16 C7 N1 O1 F1
C 2.870794 2.720017 -1.219102
C 2.524855 1.548025 -2.129783
C 3.049329 0.186764 -1.643761
C 2.475794 -0.157995 -0.260933
O 1.081329 0.008385 -0.206825
N 4.512657 0.161976 -1.653771
C 5.169420 -0.808114 -0.800436
C 5.092556 0.183041 -2.987460
C 6.100321 1.310016 -3.107945
F 6.712567 1.268017 -4.353143
H 2.598720 3.677067 -1.690275
H 3.949270 2.743901 -0.999768
H 2.332625 2.661415 -0.260270
H 2.916735 1.738817 -3.141506
H 1.432368 1.472206 -2.239064
H 2.652723 -0.588300 -2.341935
H 2.755327 -1.189736 0.016696
H 2.904606 0.509973 0.503081
H 0.685431 -0.593735 -0.848554
H 4.939146 -0.640215 0.260911
H 6.259416 -0.698917 -0.903930
H 4.916593 -1.862043 -1.049175
H 4.315474 0.322059 -3.754050
H 5.592716 -0.774823 -3.227505
H 6.882692 1.221890 -2.336809
H 5.603806 2.287490 -2.999436