27
H17 C8 N1 O1
C 0.827429 -0.091953 0.133011
C 2.333125 -0.055695 -0.085244
N 2.887918 -1.296852 -0.607790
C 2.438752 -1.589502 -1.951862
C 4.335472 -1.321510 -0.466434
C 4.997219 -2.680332 -0.760111
C 5.573284 -2.782172 -2.169661
C 6.006833 -3.182492 0.298878
O 5.294881 -4.405115 0.482177
C 4.208283 -3.929006 -0.314961
H 0.504899 0.815835 0.665174
H 0.547787 -0.966221 0.741828
H 0.261520 -0.134613 -0.809621
H 2.820811 0.138290 0.883312
H 2.593508 0.808174 -0.739799
H 1.341788 -1.559613 -2.006087
H 2.740747 -2.602255 -2.254402
H 2.836163 -0.873334 -2.706525
H 4.555326 -1.042842 0.575713
H 4.816257 -0.543649 -1.103977
H 6.362018 -2.026194 -2.314617
H 4.808467 -2.622735 -2.943789
H 6.022682 -3.773954 -2.336491
H 6.041371 -2.578165 1.224045
H 7.039834 -3.345290 -0.055211
H 3.314264 -3.696764 0.289149
H 3.928483 -4.638831 -1.112853