31
H19 C9 N1 O2
C 0.554638 -0.422490 -0.521496
O 1.932540 -0.579196 -0.678462
C 2.541724 -1.236296 0.398715
C 4.030012 -1.357279 0.135981
C 4.765950 -2.034583 1.284911
N 6.187761 -2.207248 1.012622
C 6.858807 -3.105069 1.951580
C 7.250958 -2.236721 3.152067
C 7.641803 -0.901008 2.490381
O 7.363269 0.264063 3.234555
C 6.028674 0.546436 3.537761
C 6.981236 -0.979760 1.077671
H 0.165634 0.099254 -1.407795
H 0.303225 0.178034 0.375387
H 0.032246 -1.395786 -0.432274
H 2.094389 -2.242514 0.541805
H 2.365087 -0.677360 1.342118
H 4.431833 -0.345262 -0.037037
H 4.194735 -1.932153 -0.789920
H 4.336192 -3.038419 1.434798
H 4.570430 -1.471621 2.222278
H 7.767954 -3.510184 1.471481
H 6.215827 -3.957952 2.211838
H 8.067153 -2.662418 3.752567
H 6.383982 -2.099685 3.816082
H 8.733732 -0.865646 2.363446
H 6.017047 1.495042 4.093827
H 5.555152 -0.222611 4.175313
H 5.399781 0.676255 2.636934
H 7.777487 -1.017212 0.316218
H 6.376704 -0.088972 0.858579