31
H20 C9 N2
C 0.871732 -0.176807 -0.095751
N 2.313569 -0.077155 -0.027264
C 2.834310 -0.803687 1.111143
C 2.931512 -0.466209 -1.284406
C 4.412071 -0.117858 -1.385205
C 4.969295 -0.356078 -2.782362
N 6.382496 -0.026810 -2.852025
C 6.972075 -0.231385 -4.149198
C 8.491738 -0.019207 -4.279370
C 8.525933 -1.181141 -5.294769
C 7.163859 -1.655656 -4.746133
H 0.419897 0.188166 0.839786
H 0.513913 -1.219463 -0.256930
H 0.484021 0.439909 -0.921503
H 2.336590 -0.463173 2.032065
H 3.912304 -0.627010 1.236972
H 2.677475 -1.903934 1.029843
H 2.394998 0.057483 -2.093412
H 2.794759 -1.556841 -1.478629
H 4.998532 -0.717202 -0.668141
H 4.555649 0.940297 -1.110166
H 4.430860 0.279959 -3.507515
H 4.760683 -1.406127 -3.083823
H 6.889929 -0.586948 -2.166554
H 6.436777 0.400585 -4.879268
H 8.998968 -0.294528 -3.340034
H 8.850310 0.971358 -4.597681
H 9.371551 -1.881962 -5.236711
H 8.442627 -0.817792 -6.330448
H 7.289980 -2.393619 -3.936543
H 6.416245 -2.032286 -5.460748