33
H21 C10 N1 O1
C 2.964565 -2.234029 -1.541841
O 2.537158 -2.240484 -0.206702
C 2.801974 -1.074374 0.559628
C 2.094119 0.163672 0.026076
C 4.302781 -0.848142 0.740709
N 4.922340 -2.046195 1.268367
C 6.369676 -2.136660 1.200905
C 7.026957 -2.151858 -0.199425
C 8.464032 -1.618326 0.008937
C 8.559572 -1.250931 1.503638
C 7.112672 -1.014431 1.941010
C 6.877944 -0.992133 3.441822
H 2.662087 -3.195150 -1.981836
H 4.062710 -2.147747 -1.641146
H 2.500311 -1.427132 -2.136677
H 2.384092 -1.320706 1.549240
H 2.541291 0.527719 -0.911840
H 2.157068 0.977885 0.763376
H 1.030726 -0.053205 -0.155645
H 4.432001 -0.007024 1.442701
H 4.735637 -0.509894 -0.224434
H 4.503767 -2.853842 0.810590
H 6.642295 -3.080319 1.708858
H 6.466111 -1.494511 -0.882133
H 7.002903 -3.161129 -0.637680
H 8.636964 -0.727487 -0.614281
H 9.230023 -2.354604 -0.276225
H 9.211192 -0.383984 1.692080
H 8.971355 -2.097152 2.081073
H 6.783333 -0.049405 1.512158
H 7.217106 -1.934288 3.904850
H 5.807394 -0.875448 3.671847
H 7.421814 -0.164867 3.924949