25
H16 C7 O2
C 4.399468 -2.916736 1.076155
C 4.247448 -1.504293 0.558065
O 4.079598 -1.547949 -0.836981
C 3.887566 -0.303884 -1.477026
C 2.399035 -0.106420 -1.756539
O 1.607923 -0.155260 -0.592498
C 4.765166 -0.271653 -2.738472
C 4.589799 1.012830 -3.549821
C 6.232112 -0.475606 -2.361697
H 4.534890 -2.911441 2.168122
H 5.273180 -3.408819 0.621370
H 3.505493 -3.514153 0.840109
H 5.144389 -0.905536 0.817351
H 3.379160 -1.017001 1.036449
H 4.224845 0.515574 -0.807499
H 2.237715 0.839911 -2.302671
H 2.054653 -0.926255 -2.407765
H 1.817938 0.621792 -0.061331
H 4.449595 -1.126605 -3.363779
H 4.760668 1.903714 -2.921644
H 3.588404 1.100401 -3.996117
H 5.317829 1.046217 -4.375297
H 6.601601 0.370273 -1.757016
H 6.864068 -0.545189 -3.260876
H 6.365016 -1.396592 -1.776792