30
H19 C9 N1 O1
C 3.244140 1.195552 3.246106
C 2.599426 1.784148 1.993210
C 3.011241 1.180579 0.629877
N 2.300161 -0.031054 0.222016
C 2.384127 -1.205193 1.068210
C 1.934558 -2.431001 0.293275
O 1.999891 -3.551483 1.128378
C 1.605260 -4.734414 0.501550
C 4.512389 0.999322 0.507386
C 5.161543 1.070717 -0.842913
C 5.374329 2.179341 0.155143
H 2.847384 1.689411 4.147147
H 4.334956 1.346243 3.248093
H 3.056789 0.117624 3.353958
H 2.830772 2.862800 1.963088
H 1.500333 1.714434 2.071224
H 2.728291 1.931479 -0.127813
H 1.320592 0.199763 0.068704
H 1.781319 -1.140830 1.996581
H 3.428514 -1.360444 1.381371
H 2.580280 -2.557552 -0.599661
H 0.898937 -2.280682 -0.080348
H 1.690254 -5.553653 1.230061
H 2.243806 -4.975402 -0.371362
H 0.555694 -4.687892 0.149098
H 4.955591 0.286403 1.210053
H 4.513844 1.273065 -1.701427
H 5.996638 0.397550 -1.054502
H 4.873002 3.134028 -0.032268
H 6.353942 2.269550 0.632055