29
H19 C9 N1
C 1.025381 -0.052348 0.198795
C 2.166947 -0.354134 -0.420800
C 2.981394 -1.592281 -0.172980
N 4.357184 -1.281853 0.177150
C 4.490818 -0.595099 1.462586
C 5.079625 0.804040 1.339302
C 5.263677 -2.404262 0.006049
C 6.731979 -1.998164 -0.059736
C 7.663527 -3.182316 -0.305069
C 9.133241 -2.784872 -0.372199
H 0.466256 0.857273 -0.040444
H 0.603512 -0.709151 0.968191
H 2.573157 0.327869 -1.178719
H 2.998311 -2.180346 -1.106422
H 2.475339 -2.224226 0.590984
H 5.111331 -1.199788 2.149193
H 3.501380 -0.524378 1.946434
H 6.082610 0.774421 0.886557
H 5.164755 1.283878 2.327745
H 4.442337 1.440133 0.705162
H 5.001274 -2.909618 -0.938106
H 5.132998 -3.164795 0.810903
H 7.028324 -1.497239 0.878173
H 6.853407 -1.250833 -0.863432
H 7.373992 -3.684574 -1.244793
H 7.520404 -3.929431 0.495267
H 9.313861 -2.062739 -1.185129
H 9.779936 -3.657819 -0.551491
H 9.462054 -2.313203 0.568257