27
H17 C8 N1 O1
C 1.958742 -1.350538 0.137156
C 2.420012 -0.107295 -0.609534
N 2.195030 1.132969 0.115578
C 2.326433 2.302820 -0.738798
C 1.874838 3.580793 -0.024357
C 0.363661 3.592868 0.209902
C 2.678696 3.744430 1.272568
C 2.631133 2.485962 2.133165
O 3.440306 2.592892 3.282534
C 3.017005 1.261078 1.303916
H 2.033427 -2.232059 -0.517546
H 0.908917 -1.242204 0.452071
H 2.564971 -1.556321 1.032057
H 1.860380 -0.038491 -1.555971
H 3.492545 -0.217767 -0.891653
H 1.714543 2.147632 -1.641687
H 3.380420 2.428791 -1.081035
H 2.122835 4.427383 -0.685668
H 0.035739 2.710079 0.779005
H -0.179386 3.586989 -0.748578
H 0.054566 4.492303 0.765532
H 2.323791 4.610385 1.854270
H 3.737676 3.935947 1.017297
H 1.605962 2.335540 2.508046
H 4.340518 2.781049 2.988428
H 2.912303 0.367600 1.935606
H 4.100275 1.347483 1.038506