32
H21 C9 N1 O1
C 1.193620 -0.599150 -0.804391
C 2.634798 -0.214134 -0.497084
C 2.767056 0.697901 0.731527
N 2.133184 0.069671 1.893923
C 1.063711 0.819621 2.523011
C 0.508835 0.079285 3.731125
C -0.651609 0.804080 4.397886
O -1.120324 0.146430 5.550322
C 4.226888 1.101341 1.038084
C 4.959545 1.670194 -0.177837
C 4.295443 2.096185 2.199486
H 1.134879 -1.268333 -1.676941
H 0.582452 0.291560 -1.026296
H 0.736570 -1.115691 0.053070
H 3.067216 0.285058 -1.378261
H 3.236293 -1.125000 -0.323152
H 2.218018 1.633486 0.504587
H 2.834541 -0.173789 2.589396
H 0.256733 0.965888 1.783633
H 1.379935 1.838943 2.836779
H 1.308477 -0.065815 4.478645
H 0.180930 -0.926862 3.414875
H -1.465565 0.956915 3.661126
H -0.328524 1.807130 4.721438
H -1.433968 -0.724969 5.281354
H 4.753203 0.177898 1.348529
H 4.406320 2.522674 -0.607935
H 5.102346 0.924182 -0.972681
H 5.958032 2.034926 0.110286
H 3.797361 3.043392 1.932024
H 5.341262 2.329319 2.453875
H 3.814725 1.709462 3.110764