23
H15 C6 N1 O1
C 1.065912 -0.030803 0.082546
C 2.585902 0.038909 0.013679
C 3.092231 0.985617 -1.066938
N 4.541353 1.052442 -1.084123
C 5.077547 1.924994 -2.111392
C 6.599586 1.932095 -2.097651
C 7.204027 2.875715 -3.127754
O 8.610170 2.830678 -3.155212
H 0.732099 -0.723874 0.869814
H 0.636894 -0.378825 -0.871202
H 0.630156 0.957599 0.301636
H 2.994815 -0.969725 -0.175118
H 2.997671 0.362695 0.984319
H 2.699907 2.000999 -0.875571
H 2.669059 0.677641 -2.050030
H 4.912025 0.112693 -1.225682
H 4.703902 2.948368 -1.926730
H 4.721367 1.651173 -3.129972
H 6.979822 0.913468 -2.289410
H 6.945675 2.218225 -1.088711
H 6.836446 3.905902 -2.947650
H 6.863717 2.592799 -4.137388
H 8.927689 3.103153 -2.286289