34
H21 C10 N1 O2
C 1.461701 -0.926649 0.843784
C 2.476635 -0.943945 -0.021771
C 3.037985 0.257219 -0.724172
C 4.510904 0.488669 -0.377034
N 5.105748 1.582822 -1.124162
C 4.565198 2.894303 -0.790866
C 3.789108 3.506496 -1.945966
O 3.308562 4.760613 -1.553744
C 2.577769 5.411648 -2.548986
C 6.553741 1.538686 -1.181346
C 7.107284 2.305864 -2.370985
O 8.499342 2.165325 -2.378020
C 9.118927 2.841439 -3.430766
H 1.104134 -1.842353 1.324456
H 0.946179 0.005545 1.102008
H 2.965235 -1.901592 -0.246946
H 2.437290 1.146513 -0.473589
H 2.969267 0.113567 -1.816774
H 5.071240 -0.429547 -0.615032
H 4.602925 0.637902 0.722359
H 5.374745 3.589524 -0.506864
H 3.898001 2.832891 0.086963
H 2.954911 2.835217 -2.235287
H 4.449043 3.594528 -2.833530
H 2.242825 6.380407 -2.151092
H 1.684399 4.831940 -2.854749
H 3.185894 5.598162 -3.456258
H 6.871336 0.490156 -1.287321
H 7.030393 1.927260 -0.254664
H 6.827812 3.378098 -2.315060
H 6.658769 1.904384 -3.303139
H 10.202698 2.671907 -3.356084
H 8.931908 3.932786 -3.390657
H 8.775062 2.475917 -4.418519