34
H21 C11 N1 O1
C 1.416162 -0.106077 0.545220
O 2.616246 0.256430 -0.077987
C 2.906385 -0.420981 -1.287417
C 2.379606 0.372401 -2.484385
N 0.931051 0.382827 -2.593194
C 0.443865 1.534015 -3.338135
C -1.078696 1.608765 -3.317774
C -1.698386 0.317033 -3.845240
C -1.123337 -0.883575 -3.098101
C 0.400689 -0.862893 -3.126199
C 4.405555 -0.660040 -1.307484
C 5.146148 -1.148259 -2.519970
C 5.389352 0.243473 -2.000290
H 1.354529 0.445898 1.495152
H 1.382623 -1.189373 0.776149
H 0.535079 0.144579 -0.068795
H 2.420696 -1.415719 -1.263971
H 2.843540 0.001741 -3.425317
H 2.720078 1.410332 -2.350273
H 0.794968 1.501047 -4.397020
H 0.870770 2.445559 -2.891355
H -1.409956 2.475024 -3.912015
H -1.410604 1.780215 -2.279136
H -1.469018 0.217663 -4.921407
H -2.795905 0.345063 -3.755126
H -1.483117 -1.827942 -3.536229
H -1.462199 -0.863954 -2.047849
H 0.751721 -1.018594 -4.174295
H 0.793386 -1.704949 -2.536609
H 4.744421 -1.078661 -0.354732
H 4.596557 -1.252758 -3.459904
H 5.922953 -1.902603 -2.368762
H 5.004504 1.078465 -2.591931
H 6.336099 0.450975 -1.494478