33
H21 C10 N1 O1
C 1.155548 0.123140 -0.573947
O 2.460383 0.176726 -0.078120
C 2.894943 1.452118 0.344862
C 2.277676 1.855552 1.678579
C 4.418162 1.377639 0.389855
N 5.020127 2.651138 0.733988
C 6.462587 2.726564 0.529684
C 6.811627 2.904260 -0.952130
C 8.316957 3.059608 -1.168396
C 8.884068 4.214771 -0.343586
C 8.537344 4.056888 1.136946
C 7.033154 3.887934 1.345767
H 0.988513 -0.889349 -0.969547
H 0.996231 0.847950 -1.396418
H 0.389602 0.315101 0.200647
H 2.616318 2.208056 -0.418077
H 2.566945 1.142849 2.467934
H 1.179310 1.885040 1.622208
H 2.612485 2.862226 1.971358
H 4.756082 1.074038 -0.612379
H 4.709734 0.557189 1.081484
H 4.828773 2.850982 1.714071
H 6.962184 1.795083 0.881621
H 6.284121 3.803229 -1.318371
H 6.433977 2.052362 -1.539534
H 8.529105 3.211150 -2.238867
H 8.825236 2.122443 -0.878287
H 8.461378 5.165595 -0.715032
H 9.976075 4.281833 -0.475687
H 8.901228 4.923320 1.712080
H 9.060882 3.171156 1.539075
H 6.506349 4.811453 1.044491
H 6.811665 3.729065 2.415069