19
H12 C5 O2
C 6.603261 -1.855646 -1.828340
O 6.191620 -0.632136 -1.293840
C 4.811289 -0.417426 -1.402348
C 4.434562 0.953954 -0.856134
C 2.931482 1.064362 -0.662887
O 4.820426 2.005217 -1.714091
C 6.174054 2.364630 -1.687813
H 7.689811 -1.942873 -1.685877
H 6.384274 -1.930198 -2.911555
H 6.113807 -2.712042 -1.324022
H 4.257793 -1.197974 -0.841038
H 4.482933 -0.480517 -2.460612
H 4.941845 1.072037 0.123500
H 2.404760 0.897545 -1.616036
H 2.673925 2.069647 -0.300219
H 2.570729 0.326045 0.067814
H 6.278015 3.301867 -2.254889
H 6.827576 1.600881 -2.140757
H 6.529739 2.545627 -0.654568