36
H23 C11 N1 O1
C 1.003796 -0.161073 -0.097630
C 2.513860 -0.049785 0.079545
C 3.208407 -1.408690 0.082329
C 4.738686 -1.365368 0.112866
C 5.272817 -0.649889 1.351180
N 5.238913 -2.738008 0.059270
C 6.618411 -2.881430 -0.361210
C 7.045321 -4.335500 -0.276047
O 8.375758 -4.431085 -0.709644
C 9.053045 -5.624729 -0.455611
C 9.334909 -6.101172 0.985823
C 9.230368 -7.545179 0.448029
C 8.429907 -7.004890 -0.757294
H 0.522763 0.829248 -0.085873
H 0.551984 -0.761135 0.709132
H 0.747567 -0.646096 -1.053738
H 2.728308 0.483326 1.020372
H 2.935815 0.572955 -0.728933
H 2.900483 -1.964024 -0.822637
H 2.859228 -2.006141 0.944221
H 5.074327 -0.793103 -0.781440
H 4.891163 -1.132071 2.266207
H 4.973057 0.408457 1.362406
H 6.372304 -0.673788 1.387891
H 4.652286 -3.269478 -0.582709
H 7.272907 -2.294014 0.301831
H 6.802092 -2.511660 -1.393040
H 6.377161 -4.955791 -0.906132
H 6.921777 -4.682697 0.766153
H 10.008156 -5.532890 -0.996276
H 8.497348 -5.871125 1.661718
H 10.274752 -5.776077 1.456245
H 8.735944 -8.288680 1.089039
H 10.211642 -7.938953 0.142962
H 7.350688 -7.018470 -0.542626
H 8.602977 -7.442814 -1.751628