39
H25 C12 N1 O1
C 0.650695 0.255074 -0.344913
C 2.120094 0.045000 0.000301
C 2.876550 -0.747516 -1.061809
C 4.338434 -0.955197 -0.716179
O 4.958879 -1.693874 -1.732815
C 6.318842 -1.940133 -1.507963
C 6.851140 -2.776782 -2.671601
N 8.259720 -3.067824 -2.634313
C 9.203150 -1.985230 -2.893847
C 10.417777 -2.282193 -2.000272
C 11.750504 -1.853988 -2.593709
C 10.280384 -3.786494 -1.706806
C 11.061735 -4.279501 -0.499864
C 8.765814 -3.936755 -1.589130
H 0.131002 0.828121 0.438492
H 0.126501 -0.707831 -0.458248
H 0.538897 0.806598 -1.292606
H 2.199544 -0.477224 0.969746
H 2.608958 1.024823 0.141045
H 2.814110 -0.228376 -2.033750
H 2.404137 -1.735182 -1.201211
H 4.428533 -1.484528 0.255639
H 4.842815 0.025573 -0.588087
H 6.462566 -2.475956 -0.548022
H 6.881985 -0.987297 -1.429450
H 6.616898 -2.243538 -3.608818
H 6.284149 -3.723547 -2.700924
H 8.782740 -0.987695 -2.668292
H 9.496254 -1.967120 -3.962732
H 10.271613 -1.755313 -1.039306
H 11.946785 -2.383289 -3.540961
H 12.584332 -2.068359 -1.907130
H 11.765283 -0.772546 -2.803670
H 10.610062 -4.341780 -2.604340
H 10.774364 -3.726210 0.409773
H 12.145745 -4.150307 -0.643565
H 10.878334 -5.349897 -0.315117
H 8.446948 -3.635542 -0.566254
H 8.426087 -4.977075 -1.737234