34
H21 C11 N1 O1
C 1.327659 0.932082 -2.783271
C 2.448015 1.069011 -2.074504
C 3.016407 0.025641 -1.143217
C 2.605591 0.388533 0.284533
O 3.146082 -0.554596 1.167254
C 2.921660 -0.253768 2.515109
N 4.470260 -0.040742 -1.196906
C 5.058856 -0.961738 -2.172677
C 4.816153 -0.502898 -3.625247
C 3.725317 -1.286937 -4.346454
C 6.523946 -1.128419 -1.789913
C 7.575826 -1.653694 -2.722404
C 7.605611 -0.212026 -2.286388
H 0.940470 1.744700 -3.404807
H 0.754442 -0.001835 -2.770007
H 3.006775 2.012915 -2.103232
H 2.551733 -0.956250 -1.376445
H 2.976089 1.405723 0.529352
H 1.500940 0.411474 0.351854
H 3.386616 -1.043827 3.121345
H 1.841525 -0.217368 2.753906
H 3.368023 0.718393 2.799998
H 4.776539 -0.345077 -0.273996
H 4.595041 -1.968293 -2.068475
H 5.740254 -0.590550 -4.217116
H 4.576530 0.571667 -3.613362
H 4.012908 -2.345003 -4.458223
H 3.545405 -0.882479 -5.354981
H 2.770224 -1.259013 -3.800497
H 6.635014 -1.454637 -0.748876
H 7.297654 -1.869544 -3.758208
H 8.324291 -2.335438 -2.309824
H 7.332516 0.546622 -3.025961
H 8.380347 0.103745 -1.582582