30
H19 C9 N1 O1
C 1.831271 -0.261586 0.920871
C 2.878202 -1.078836 0.795043
C 3.360923 -1.676886 -0.493730
C 4.776699 -1.209834 -0.844154
N 5.323302 -1.852040 -2.029221
C 4.757574 -1.327341 -3.255075
C 6.774908 -1.854197 -2.048505
C 7.398120 -2.941115 -1.170603
C 7.017314 -4.339609 -1.636152
O 8.789249 -2.708052 -1.216906
C 9.545894 -3.419236 -0.282433
H 1.537509 0.146643 1.892740
H 1.223995 0.026996 0.055212
H 3.459946 -1.336479 1.690479
H 2.656310 -1.426815 -1.302529
H 3.381362 -2.777123 -0.406773
H 5.431617 -1.437822 0.010893
H 4.782433 -0.101281 -0.950622
H 3.660466 -1.401638 -3.241037
H 5.114715 -1.909251 -4.118063
H 5.018755 -0.259813 -3.429707
H 7.200500 -0.874962 -1.741328
H 7.113456 -2.032389 -3.081668
H 7.049072 -2.809635 -0.125195
H 7.440511 -4.535564 -2.634867
H 5.922804 -4.419007 -1.700139
H 7.376025 -5.117496 -0.945797
H 10.574932 -3.032751 -0.319735
H 9.582576 -4.504439 -0.492931
H 9.162148 -3.285043 0.748213