27
H17 C8 N1 O1
C 0.771251 -0.069097 -0.339322
C 2.278854 -0.144811 -0.080543
N 2.849112 0.717041 0.943550
C 2.291551 0.580257 2.281105
C 1.227774 1.693104 2.448175
C 1.608156 2.739920 1.381675
C 2.882568 2.162811 0.716987
C 3.048781 2.606768 -0.720825
O 4.261295 2.139794 -1.242965
C 4.455401 2.497203 -2.579115
H 0.493796 -0.775034 -1.138546
H 0.453501 0.935754 -0.656558
H 0.191202 -0.341640 0.556238
H 2.824737 0.049343 -1.016565
H 2.528139 -1.183466 0.197022
H 3.094161 0.730854 3.025653
H 1.891209 -0.432444 2.437295
H 1.239646 2.109274 3.466393
H 0.216104 1.300382 2.269496
H 1.797157 3.735691 1.809431
H 0.806609 2.853501 0.634412
H 3.757815 2.550259 1.272210
H 2.197472 2.258760 -1.340095
H 3.016291 3.715527 -0.742819
H 5.428510 2.100382 -2.901960
H 4.462041 3.596379 -2.717795
H 3.670167 2.077367 -3.238447