19
H12 C6 O1
C 0.962418 -0.049833 0.222608
C 2.483232 -0.052738 0.127213
C 2.994575 -0.169228 -1.306578
C 4.516679 -0.155449 -1.400997
C 5.092725 -0.452381 -2.765199
C 4.376596 -0.258866 -4.028150
O 4.557840 -1.554312 -3.481995
H 0.623215 0.027579 1.267290
H 0.535912 -0.974454 -0.199650
H 0.529108 0.798053 -0.332756
H 2.889290 -0.887339 0.725233
H 2.884192 0.870066 0.582197
H 2.576774 0.658366 -1.905635
H 2.615211 -1.101984 -1.758225
H 4.935016 -0.897357 -0.697733
H 4.909424 0.823410 -1.075780
H 6.189836 -0.396142 -2.806437
H 4.943746 -0.046298 -4.943379
H 3.345692 0.114336 -4.027227