17
H10 C5 O2
C 2.864856 0.092184 -1.453099
C 2.604824 -0.070687 0.034191
O 1.228667 -0.242444 0.181821
C 3.164677 1.084154 0.892334
C 4.519615 0.563934 1.352991
C 4.210006 -0.917735 1.525232
O 3.294051 -1.231559 0.491837
H 3.933504 0.274373 -1.635661
H 2.285067 0.934430 -1.857452
H 2.569983 -0.827783 -1.978845
H 1.042980 -0.346724 1.123762
H 2.499614 1.235481 1.759067
H 3.207048 2.028708 0.332878
H 4.883852 1.035689 2.276342
H 5.280965 0.707510 0.569885
H 3.757843 -1.111507 2.517628
H 5.093087 -1.566794 1.424811