32
H21 C9 N1 O1
C 0.988365 0.130170 0.240731
C 2.508649 0.068777 0.152871
C 3.036007 -1.300695 -0.268363
C 4.557548 -1.369053 -0.362989
C 5.080404 -2.743991 -0.770021
C 6.599911 -2.776467 -0.895560
N 7.152515 -4.109925 -1.081989
C 6.733408 -4.716395 -2.330300
C 8.594739 -4.141480 -0.915801
C 9.114119 -5.499608 -0.450171
O 10.502936 -5.482063 -0.228433
H 0.640863 1.128860 0.548040
H 0.601491 -0.597445 0.972947
H 0.522972 -0.100315 -0.731658
H 2.945980 0.339775 1.129961
H 2.868188 0.830147 -0.561649
H 2.597145 -1.574989 -1.244918
H 2.680971 -2.063648 0.448112
H 4.996267 -1.083724 0.610078
H 4.910803 -0.614071 -1.088549
H 4.608453 -3.035703 -1.723114
H 4.775104 -3.498717 -0.024138
H 7.031486 -2.363222 0.030700
H 6.912216 -2.090880 -1.718569
H 5.645229 -4.872645 -2.350593
H 7.200503 -5.703257 -2.456094
H 7.006179 -4.098827 -3.215961
H 8.882133 -3.404715 -0.149946
H 9.127547 -3.847474 -1.850160
H 8.832430 -6.294256 -1.166668
H 8.634499 -5.749660 0.509170
H 10.934949 -5.335945 -1.078206