36
H23 C11 N1 O1
C 1.003453 0.325081 0.392999
C 2.372106 -0.293432 0.650103
C 3.071210 -0.758737 -0.621001
C 4.358007 -1.577603 -0.391289
N 3.595727 -2.811404 -0.602500
C 4.222664 -3.911212 -1.291488
C 3.691869 -5.312689 -0.937629
C 4.125131 -5.686439 0.478829
C 2.161865 -5.420519 -1.135911
C 1.285905 -5.028283 0.051104
O 4.341955 -6.123708 -1.919661
C 4.371962 -7.505838 -1.718383
C 2.510787 -2.057260 -1.239714
H 0.523042 0.641278 1.331815
H 0.325767 -0.389435 -0.101746
H 1.083357 1.211690 -0.256998
H 2.273531 -1.151357 1.338016
H 3.019386 0.439878 1.161578
H 3.175862 0.080138 -1.325284
H 4.844991 -1.489102 0.596057
H 5.117502 -1.396386 -1.177329
H 5.298871 -3.901898 -1.052913
H 4.138216 -3.798609 -2.393463
H 3.813578 -4.899234 1.179912
H 5.222232 -5.768150 0.527821
H 3.688282 -6.637734 0.818495
H 1.931128 -6.465357 -1.399573
H 1.891920 -4.822826 -2.023023
H 1.391091 -5.742146 0.882215
H 0.224259 -5.022246 -0.240985
H 1.537786 -4.031207 0.438036
H 4.759879 -7.960041 -2.642261
H 3.373750 -7.941465 -1.525311
H 5.038939 -7.805137 -0.889028
H 1.488160 -2.355402 -0.951234
H 2.578716 -2.068919 -2.346225