35
H22 C10 N1 O1 F1
C 1.145127 -0.200501 -0.121328
C 2.653624 -0.113083 -0.065165
O 3.034948 1.229789 0.080074
C 4.417526 1.421686 0.143948
C 4.750257 2.909017 0.328166
C 4.138267 3.719495 -0.824335
C 4.183695 3.385461 1.667569
N 6.216888 2.960134 0.347566
C 6.849297 4.236190 0.632245
C 8.365085 4.107445 0.547897
C 9.091688 5.404401 0.886305
C 10.593293 5.255819 0.796988
F 11.213837 6.458665 1.110591
H 0.827476 -1.247608 -0.235063
H 0.753317 0.375014 -0.973947
H 0.697404 0.198991 0.801535
H 3.098476 -0.539371 -0.987449
H 3.043316 -0.714691 0.781144
H 4.902465 1.052815 -0.785365
H 4.859459 0.851773 0.986081
H 3.047058 3.588448 -0.857198
H 4.550281 3.385502 -1.791090
H 4.349245 4.794243 -0.714548
H 3.113835 3.140614 1.724868
H 4.288471 4.473502 1.793972
H 4.699959 2.887519 2.503711
H 6.557147 2.628222 -0.555147
H 6.578436 4.555858 1.651725
H 6.522371 5.052663 -0.045921
H 8.643633 3.784323 -0.471425
H 8.688138 3.302041 1.229204
H 8.828274 5.729330 1.906912
H 8.774466 6.207212 0.199653
H 10.906222 4.970225 -0.220911
H 10.961398 4.492465 1.502095