33
H21 C10 N1 O1
C 1.073751 -0.510706 0.243882
C 2.559835 -0.200548 0.107202
C 2.921402 0.816367 -0.985759
C 2.197392 2.168772 -0.793375
C 0.964386 2.350761 -1.672736
C 4.445507 0.966214 -1.065933
N 4.919306 1.555297 -2.297095
C 4.933348 3.008586 -2.495515
C 6.283426 2.892168 -3.209690
O 6.135012 2.940558 -4.597371
C 7.336065 2.757877 -5.291638
C 6.349793 1.473747 -2.600059
H 0.904858 -1.284116 1.009375
H 0.654555 -0.883936 -0.704807
H 0.491745 0.375393 0.541710
H 3.101288 -1.140407 -0.096146
H 2.945768 0.169470 1.074906
H 2.608430 0.394147 -1.958446
H 2.888611 3.000374 -0.995030
H 1.917094 2.281084 0.268889
H 1.239548 2.330527 -2.740027
H 0.468964 3.314559 -1.474892
H 0.222163 1.554263 -1.509664
H 4.898683 -0.037390 -1.004284
H 4.810984 1.531053 -0.175229
H 5.014374 3.582163 -1.550842
H 4.108946 3.423089 -3.098904
H 7.074321 3.588744 -2.877296
H 7.117004 2.814057 -6.367332
H 7.798491 1.774270 -5.083549
H 8.078115 3.541768 -5.043066
H 6.992569 1.444132 -1.697782
H 6.644025 0.650982 -3.274240