37
H24 C10 N2 O1
C 0.999700 -0.097548 -0.684946
O 2.392620 0.001557 -0.684741
C 3.036570 -1.220542 -0.898478
C 4.547338 -1.024549 -0.832237
C 4.969424 -0.512429 0.539261
N 5.175164 -2.296637 -1.163883
C 6.630363 -2.271291 -1.353543
C 7.342971 -2.898240 -0.155173
C 6.978179 -2.967008 -2.674058
C 8.465406 -2.986307 -3.009229
N 8.761568 -3.601687 -4.293612
C 8.355738 -2.790096 -5.421508
C 10.155948 -3.975037 -4.398027
H 0.585609 0.905934 -0.511265
H 0.632047 -0.771720 0.113372
H 0.610956 -0.473888 -1.651663
H 2.759865 -1.634929 -1.891298
H 2.730734 -1.971029 -0.139605
H 4.802792 -0.239621 -1.578980
H 4.752716 -1.266189 1.314073
H 4.416525 0.406581 0.780063
H 6.044180 -0.279859 0.573931
H 4.739344 -2.653312 -2.011588
H 6.970461 -1.219377 -1.442317
H 7.118695 -3.976358 -0.098585
H 7.005336 -2.435718 0.783222
H 8.435452 -2.773532 -0.213205
H 6.420338 -2.453396 -3.474253
H 6.607660 -4.007463 -2.644750
H 8.998024 -3.564771 -2.238934
H 8.872030 -1.948482 -2.954790
H 7.277585 -2.576775 -5.391627
H 8.558277 -3.324697 -6.362375
H 8.892411 -1.814721 -5.464721
H 10.432017 -4.660802 -3.582058
H 10.845647 -3.101488 -4.353870
H 10.339778 -4.493614 -5.351972