36
H23 C10 N1 O2
C 4.550151 0.590632 2.120443
C 3.665723 -0.450192 1.439014
C 4.361967 -1.321087 0.378181
C 5.404462 -2.244668 1.010526
C 4.964590 -0.512193 -0.791973
C 3.978371 0.500948 -1.381937
N 5.479705 -1.442168 -1.792654
C 6.341573 -0.886061 -2.809511
C 6.933345 -2.002870 -3.650943
O 5.891436 -2.744343 -4.232855
C 5.886687 -4.123622 -3.962904
O 7.731174 -1.417424 -4.622797
C 8.436813 -2.326721 -5.425129
H 3.980978 1.145373 2.882619
H 4.943362 1.329731 1.404414
H 5.411914 0.129295 2.627646
H 2.795564 0.054193 0.988810
H 3.249918 -1.124457 2.207211
H 3.575390 -1.961532 -0.065665
H 6.241024 -1.670839 1.442323
H 5.828098 -2.927200 0.261745
H 4.959876 -2.847496 1.818499
H 5.838085 0.043901 -0.404161
H 3.050552 -0.003566 -1.701753
H 4.411063 1.000879 -2.261703
H 3.707717 1.288308 -0.663418
H 4.701189 -1.921933 -2.244066
H 7.167969 -0.338129 -2.329331
H 5.843174 -0.179364 -3.505193
H 7.539899 -2.678440 -3.010261
H 5.059427 -4.568765 -4.533629
H 5.721105 -4.332804 -2.890800
H 6.826563 -4.614652 -4.274006
H 9.088920 -1.746792 -6.092827
H 7.760735 -2.941577 -6.044229
H 9.067640 -3.002945 -4.817037