31
H19 C10 N1 O1
C 1.078381 0.645749 -0.054795
O 2.451375 0.502222 0.156038
C 3.166515 1.691374 -0.012816
C 4.656481 1.428106 0.175887
C 5.175236 0.453356 -0.874671
N 5.342333 2.710369 0.111521
C 6.757927 2.677775 0.430930
C 7.370771 4.077836 0.517710
C 7.133746 4.905862 -0.773772
C 6.133587 5.952510 -0.362347
C 5.931561 5.966571 0.957982
C 6.762461 4.929779 1.666704
H 0.604335 -0.333880 0.100815
H 0.850648 0.986067 -1.084037
H 0.624212 1.370137 0.649663
H 2.829095 2.453445 0.721464
H 2.996192 2.119895 -1.022694
H 4.777584 0.951562 1.174632
H 5.148711 0.921414 -1.872702
H 4.543865 -0.446097 -0.891728
H 6.208253 0.136165 -0.669414
H 4.877110 3.355071 0.749278
H 7.290086 2.116703 -0.355343
H 6.959480 2.143230 1.386374
H 8.447641 3.934162 0.688721
H 6.758424 4.278322 -1.599028
H 8.063044 5.380137 -1.135625
H 5.657144 6.630562 -1.076024
H 5.266741 6.657063 1.484406
H 6.167974 4.320861 2.371267
H 7.546307 5.412102 2.276723