20
H10 C6 N1 F3
F 1.009283 -0.121155 -0.119345
C 2.261436 -0.162593 0.362879
F 2.172869 -0.540843 1.646280
F 2.898966 -1.147583 -0.285137
C 2.955868 1.172050 0.197191
N 4.296847 1.133032 0.719076
C 4.637347 1.982960 1.834547
C 4.347193 3.508671 1.866739
C 4.082943 3.362290 3.380512
C 3.860632 1.850692 3.159141
H 2.319644 1.920921 0.695702
H 2.931397 1.403272 -0.879140
H 4.985940 1.198661 -0.022015
H 5.709349 1.826774 2.032811
H 3.421840 3.758086 1.323676
H 5.146739 4.188370 1.534548
H 3.249508 3.937689 3.808709
H 4.988863 3.559674 3.973685
H 2.797605 1.632457 2.976915
H 4.242343 1.139764 3.907675