17
H11 C5 N1
C 1.027832 -0.018821 -0.195960
N 2.389752 0.023466 0.293960
C 2.948512 1.321344 0.585409
C 2.766425 2.569986 -0.326167
C 2.729265 3.424331 0.958071
C 2.372604 2.150693 1.753676
H 0.718152 -1.067386 -0.323897
H 0.863664 0.496126 -1.164382
H 0.338698 0.433105 0.535053
H 3.000024 -0.475385 -0.349001
H 4.026856 1.175457 0.760143
H 1.784842 2.566596 -0.824810
H 3.544558 2.779957 -1.076280
H 2.015847 4.260691 0.992712
H 3.727938 3.803430 1.224460
H 1.281101 2.027704 1.832772
H 2.816949 2.007086 2.750603