32
H19 C10 N1 O2
O 1.228656 -0.092550 -1.628828
N 2.059765 -0.149621 -0.565950
C 2.579585 -1.553973 -0.413626
C 1.439807 -2.538049 -0.248816
C 0.620326 -2.194176 0.990379
C 0.160325 -0.741359 0.932336
C 1.306771 0.238074 0.707952
C 0.812912 1.673922 0.599163
C 1.928223 2.664310 0.286039
C 2.688411 2.218426 -0.957886
C 3.226439 0.799365 -0.816743
C 4.381608 0.697882 0.197553
O 5.367279 1.666831 -0.056861
H 3.240848 -1.596529 0.463807
H 3.169047 -1.753469 -1.318494
H 1.864845 -3.550997 -0.176211
H 0.811757 -2.494564 -1.149731
H 1.238487 -2.350237 1.892355
H -0.248646 -2.864421 1.080205
H -0.346460 -0.454723 1.866964
H -0.557384 -0.610194 0.108887
H 2.030606 0.149879 1.534910
H 0.312298 1.929949 1.545906
H 0.054809 1.707042 -0.197987
H 2.615011 2.743019 1.146010
H 1.507169 3.669785 0.130861
H 3.536948 2.884669 -1.164797
H 2.018615 2.232347 -1.828027
H 3.598648 0.459420 -1.795266
H 4.820719 -0.313117 0.176165
H 4.027965 0.876235 1.223798
H 5.758922 1.475494 -0.918058