23
H14 C7 O2
C 1.010034 -0.256469 0.263598
O 2.381701 -0.009309 0.123415
C 2.848452 1.337034 0.147155
C 2.316009 2.117402 -1.054060
C 2.474136 2.054206 1.463661
O 1.134349 2.462408 1.578447
C 4.364663 1.181109 0.157427
C 5.163355 0.874928 -1.074669
C 5.314553 2.207686 -0.390274
H 0.872890 -1.343704 0.163805
H 0.400586 0.231285 -0.519174
H 0.612269 0.056249 1.243666
H 1.219260 2.183748 -1.021341
H 2.590471 1.624405 -1.997723
H 2.705157 3.146265 -1.066865
H 3.161433 2.911942 1.588247
H 2.668420 1.357021 2.294592
H 0.993600 3.212822 0.990286
H 4.702155 0.669383 1.065526
H 4.644402 0.855947 -2.036678
H 5.975716 0.148597 -0.987526
H 4.901348 3.084897 -0.895066
H 6.230611 2.404037 0.173121