22
H14 C7 O1
C 0.981701 0.067380 0.232930
C 2.318396 0.072877 0.188182
O 3.074329 0.274718 1.276840
C 4.517504 0.253046 1.170541
C 4.978911 -1.120869 0.688070
C 4.983817 1.362586 0.229742
C 4.957062 0.519534 2.618013
C 6.458655 0.558743 2.869126
H 0.411580 -0.099949 -0.682401
H 0.443133 0.228398 1.171295
H 2.845730 -0.090394 -0.759568
H 4.608571 -1.340101 -0.324423
H 4.621450 -1.909096 1.368402
H 6.076634 -1.166443 0.649562
H 4.618680 1.205081 -0.795981
H 6.081779 1.390600 0.182348
H 4.625531 2.342458 0.580935
H 4.495226 -0.259143 3.247002
H 4.503461 1.476124 2.925427
H 6.945580 -0.396036 2.617707
H 6.657033 0.756102 3.933428
H 6.954667 1.354024 2.291752