18
H9 C5 N1 O1 F2
C 0.969400 -0.018303 -0.144846
N 2.377369 -0.024467 0.158681
C 2.852804 1.064313 0.987914
C 4.308774 0.665818 1.226795
O 4.977446 1.314590 2.255706
C 4.180358 -0.857002 1.417796
F 4.155182 -1.134918 2.757092
F 5.250969 -1.532185 0.926222
C 2.864136 -1.256297 0.757715
H 0.696020 0.922837 -0.645745
H 0.332875 -0.124015 0.761253
H 0.726421 -0.847820 -0.826841
H 2.320910 1.132203 1.965783
H 2.754944 2.033500 0.477537
H 4.879806 0.826696 0.300434
H 4.569067 1.051163 3.090878
H 2.188908 -1.643568 1.548326
H 3.012501 -2.050742 0.011339