39
H25 C12 N1 O1
C 4.284312 6.576780 -1.216030
C 4.228855 5.328165 -0.364696
O 4.975843 4.313934 -0.980405
C 4.966979 3.101944 -0.280773
C 5.964363 2.123138 -0.900096
N 5.540811 0.770522 -0.552359
C 4.612523 0.163679 -1.491460
C 4.167491 -1.199526 -1.024444
C 2.800140 -1.720397 -1.381535
C 3.112725 -1.322710 0.038114
C 3.227040 -2.363479 1.124282
C 7.422254 2.350931 -0.450941
C 8.393802 1.533984 -1.307451
C 7.845609 3.819725 -0.449607
H 3.702305 7.384869 -0.748501
H 3.868496 6.384121 -2.216870
H 5.323153 6.921593 -1.333559
H 3.177226 5.001948 -0.228175
H 4.628554 5.535906 0.649338
H 3.954075 2.652607 -0.307581
H 5.213312 3.255788 0.790994
H 5.922433 2.285945 -1.999568
H 6.349473 0.162549 -0.453499
H 5.043686 0.086442 -2.513754
H 3.726659 0.815101 -1.584615
H 4.968851 -1.948228 -0.985062
H 2.698322 -2.787402 -1.601837
H 2.145016 -1.071783 -1.971201
H 2.680864 -0.368740 0.363073
H 3.671212 -3.293670 0.735624
H 2.240698 -2.615038 1.546573
H 3.864580 -2.006978 1.949479
H 7.481022 1.982109 0.590702
H 8.395887 1.904218 -2.346301
H 8.141616 0.462600 -1.338582
H 9.421697 1.615580 -0.921090
H 7.756766 4.260477 -1.455165
H 8.897538 3.905881 -0.133832
H 7.239711 4.430852 0.233969