27
H14 C8 N1 O1 F3
C 2.182703 -0.787987 -1.180585
C 2.004233 0.343552 -0.171295
N 0.762331 1.054855 -0.440968
C 0.079148 1.664423 0.678429
C -0.991033 0.733057 1.254944
O -0.473493 -0.451435 1.791098
C -1.842554 1.429923 2.312325
F -1.112196 1.766534 3.389271
F -2.401740 2.553310 1.846181
F -2.832424 0.644706 2.746242
C 3.262718 1.214306 -0.128672
C 3.580743 2.182235 -1.234675
C 3.241547 2.692601 0.140135
H 3.106264 -1.355714 -0.986887
H 2.242230 -0.385820 -2.205496
H 1.328913 -1.480631 -1.133875
H 1.891301 -0.114675 0.823246
H 0.863124 1.704286 -1.215351
H -0.413225 2.589329 0.345180
H 0.766949 1.953644 1.497853
H -1.679292 0.446592 0.445277
H 0.207634 -0.219125 2.436959
H 4.128179 0.679404 0.277289
H 2.832222 2.327872 -2.021208
H 4.614503 2.253415 -1.583120
H 2.273158 3.185087 0.260851
H 4.042577 3.116915 0.751563