27
H17 C8 N1 O1
C 2.743147 1.445469 0.544626
C 2.351145 0.062815 0.038578
O 0.943556 -0.088584 0.015168
C 2.994771 -1.077019 0.828891
C 4.516409 -1.111704 0.785324
N 5.032968 -2.279822 1.476271
C 6.475314 -2.348057 1.497690
C 7.219584 -1.389228 2.453069
C 8.163938 -2.555696 2.815893
C 7.106378 -3.530811 2.255775
H 3.820851 1.633995 0.426299
H 2.494263 1.552676 1.614445
H 2.198184 2.219907 -0.015727
H 2.664715 -0.025690 -1.015960
H 0.632450 -0.013952 0.926028
H 2.599271 -2.024739 0.424807
H 2.665366 -1.018720 1.882204
H 4.926573 -0.215636 1.281412
H 4.856637 -1.058518 -0.273280
H 4.670106 -3.120911 1.027015
H 6.919399 -2.270239 0.481556
H 6.564792 -1.120886 3.297171
H 7.660684 -0.473664 2.031590
H 8.450357 -2.668104 3.871699
H 9.078854 -2.547860 2.204223
H 6.420219 -3.878240 3.043978
H 7.449579 -4.395872 1.668797