28
H17 C9 N1 O1
C 1.442676 -0.552560 0.561687
C 2.534151 0.012902 0.033656
C 3.020716 -0.236168 -1.372795
C 2.198081 -1.197122 -2.216739
C 3.371986 0.982501 0.842227
N 4.756059 0.589503 0.903990
C 5.790124 1.477184 1.429524
C 6.547237 0.238797 1.944397
C 5.239565 -0.549351 1.704071
C 4.460352 -0.890126 2.970334
O 4.412478 0.146680 3.923220
H 0.805207 -1.237522 -0.003874
H 1.142150 -0.338586 1.592579
H 4.063861 -0.587726 -1.305281
H 3.090294 0.743368 -1.880175
H 2.152342 -2.199005 -1.761141
H 2.643801 -1.307250 -3.216844
H 1.164227 -0.841102 -2.350504
H 2.898638 1.123037 1.839584
H 3.341133 1.970490 0.348750
H 5.442653 2.134748 2.250470
H 6.292709 2.103465 0.672072
H 6.895339 0.280121 2.984520
H 7.368014 -0.074236 1.285452
H 5.334715 -1.483056 1.118705
H 3.445248 -1.233362 2.695000
H 4.962185 -1.743365 3.455404
H 3.839677 0.844651 3.586669