23
H14 C7 O2
C 0.850193 -0.162608 -0.082281
C 2.345096 -0.005683 0.094150
O 2.981193 -0.456228 -1.076581
C 4.361098 -0.705119 -1.046677
C 4.715205 -0.910980 -2.522829
O 6.055562 -1.242176 -2.764713
C 5.310532 0.289334 -0.325664
C 6.063298 -0.916285 0.279027
C 4.893255 -1.836059 -0.130433
H 0.319261 0.210499 0.806328
H 0.584236 -1.220568 -0.229147
H 0.501061 0.405853 -0.958002
H 2.680076 -0.579322 0.978000
H 2.590024 1.055786 0.287791
H 4.408986 -0.000108 -3.071802
H 4.100915 -1.744854 -2.898845
H 6.593137 -0.454309 -2.623896
H 4.792712 0.876423 0.445066
H 5.875684 0.988500 -0.964039
H 6.286031 -0.857508 1.354052
H 6.988729 -1.153340 -0.263012
H 4.210661 -2.043905 0.706331
H 5.141977 -2.784461 -0.630053