36
H23 C10 N1 O2
C 0.656558 -0.082353 1.033842
C 2.076132 0.121442 0.517094
C 3.056757 0.487507 1.627489
C 4.519705 0.600936 1.209285
C 4.770513 1.603403 0.071749
N 4.727192 0.975418 -1.235950
C 4.911629 1.902778 -2.332591
C 4.960755 1.161488 -3.655494
O 5.143619 2.085288 -4.688438
C 5.202618 1.502757 -5.963992
C 5.402383 2.586580 -6.999479
O 5.233599 0.970721 2.371760
C 6.576591 0.584294 2.379655
H -0.036742 -0.334123 0.216587
H 0.278555 0.828974 1.525026
H 0.615096 -0.898936 1.772690
H 2.065395 0.914390 -0.250310
H 2.417940 -0.798639 0.010767
H 2.998952 -0.264661 2.432138
H 2.760744 1.451062 2.079053
H 4.876894 -0.388027 0.854770
H 5.776318 2.034790 0.205718
H 4.056654 2.451045 0.170405
H 3.838037 0.493996 -1.357501
H 5.866828 2.436739 -2.191573
H 4.120965 2.681542 -2.388095
H 4.018979 0.590571 -3.801414
H 5.783392 0.418120 -3.630561
H 4.269612 0.939707 -6.171972
H 6.032003 0.767657 -6.011834
H 4.569709 3.306170 -6.975161
H 5.452044 2.147865 -8.007121
H 6.338872 3.134383 -6.813421
H 7.025685 0.944443 3.316575
H 7.153393 1.013660 1.538241
H 6.687945 -0.516839 2.338922