17
H11 C5 N1
C 0.891715 -0.057370 -0.013502
C 2.386652 0.132349 0.211228
C 2.952221 1.303057 -0.573138
C 4.391538 1.776439 -0.285563
C 3.813015 3.201871 -0.307366
N 2.460612 2.636351 -0.165377
H 0.495241 -0.894947 0.580785
H 0.668577 -0.262389 -1.073421
H 0.337538 0.850021 0.276616
H 2.934866 -0.782604 -0.073514
H 2.585142 0.304920 1.283149
H 2.810928 1.118003 -1.656889
H 5.162333 1.531145 -1.028478
H 4.737561 1.470472 0.713149
H 3.988941 3.708153 -1.273940
H 4.118511 3.887299 0.501042
H 1.758849 3.044031 -0.780250