32
H19 C9 N1 O1 F2
C 6.795073 -0.341147 0.232065
O 5.462510 -0.760008 0.235598
C 4.727182 -0.653798 -0.972644
C 5.309869 -1.485360 -2.108386
C 4.399709 0.825701 -1.359143
C 2.888794 1.001980 -1.487763
N 5.021792 1.272365 -2.600441
C 6.391038 1.735353 -2.502670
C 6.887984 2.200688 -3.864711
C 8.368424 2.514534 -3.912744
C 8.872398 3.602170 -3.000698
F 9.075474 1.361726 -3.655762
F 8.687610 2.843563 -5.207855
H 7.210484 -0.571152 1.224427
H 6.902378 0.747304 0.069562
H 7.412089 -0.865575 -0.520489
H 3.769409 -1.122732 -0.698677
H 6.256503 -1.086643 -2.498538
H 4.599726 -1.518204 -2.946933
H 5.481143 -2.515594 -1.759751
H 4.737866 1.443962 -0.500437
H 2.493225 0.369573 -2.299764
H 2.630048 2.048994 -1.712877
H 2.379633 0.721802 -0.554199
H 4.457792 2.022078 -2.995711
H 7.031545 0.908373 -2.162205
H 6.507451 2.548253 -1.754726
H 6.342298 3.100886 -4.189487
H 6.698094 1.411223 -4.608602
H 8.731491 3.316504 -1.949821
H 8.327419 4.536181 -3.193184
H 9.943758 3.761771 -3.187033