33
H21 C10 N1 O1
C 0.984436 0.019786 0.436583
C 2.381085 -0.046804 -0.139676
O 3.006028 -1.226245 0.292778
C 4.310975 -1.381709 -0.185458
C 4.881351 -2.685654 0.342412
N 6.247988 -2.850904 -0.111470
C 6.813663 -4.192146 -0.040672
C 6.207275 -5.172485 -1.083876
C 5.878906 -6.468708 -0.322432
C 6.758609 -6.427997 0.940538
C 8.181864 -6.919925 0.676928
C 6.701807 -4.940220 1.308690
H 0.478017 0.938916 0.106358
H 1.016908 0.018058 1.536930
H 0.385967 -0.843286 0.106887
H 2.970113 0.838240 0.177680
H 2.341217 -0.017665 -1.247976
H 4.951554 -0.533825 0.138384
H 4.333924 -1.391887 -1.294330
H 4.265834 -3.514866 -0.043258
H 4.764443 -2.696239 1.444864
H 6.852033 -2.201277 0.387395
H 7.883453 -4.067246 -0.269367
H 6.929808 -5.355248 -1.893616
H 5.315167 -4.737341 -1.558396
H 6.043676 -7.376340 -0.923998
H 4.818508 -6.467848 -0.021332
H 6.322032 -7.048061 1.740542
H 8.667384 -6.358385 -0.137987
H 8.184578 -7.983793 0.390801
H 8.811603 -6.812562 1.574566
H 7.482325 -4.634763 2.024055
H 5.726387 -4.723985 1.773951