29
H17 C9 N1 O2
C 1.250743 -0.245823 0.301066
O 2.616136 -0.038497 -0.037195
C 3.126831 -0.819971 -0.990521
O 2.488366 -1.656053 -1.576217
C 4.598832 -0.512352 -1.183586
N 5.173163 -1.146856 -2.340976
C 4.722189 -0.535377 -3.574800
C 6.621645 -1.249504 -2.247429
C 7.225450 -2.174620 -3.288310
C 8.676347 -2.665679 -3.074314
C 8.234400 -4.060980 -3.567204
C 6.769320 -3.649733 -3.304883
H 1.018900 0.469256 1.098784
H 1.085273 -1.271858 0.661185
H 0.598956 -0.061116 -0.565395
H 5.100707 -0.877885 -0.272214
H 4.719205 0.593080 -1.172896
H 3.624594 -0.487269 -3.593241
H 5.034147 -1.131330 -4.444207
H 5.115652 0.497104 -3.707710
H 6.863820 -1.652590 -1.249859
H 7.111011 -0.249448 -2.312911
H 7.132822 -1.740327 -4.296698
H 8.940629 -2.677277 -2.004465
H 9.477757 -2.153572 -3.627942
H 8.622996 -4.937768 -3.027806
H 8.434146 -4.195034 -4.641413
H 6.425652 -3.966956 -2.307068
H 6.009601 -3.943834 -4.044724