26
H16 C8 N1 F1
C 2.430584 0.263877 1.529399
C 2.314825 -0.038916 0.037799
C 0.862937 -0.182305 -0.378370
F 0.237695 -1.202714 0.324318
N 3.051951 -1.245977 -0.318730
C 4.489830 -1.088215 -0.412648
C 5.260132 -2.402267 -0.371139
C 6.745868 -2.220035 -0.596534
C 4.815779 -3.463080 0.596568
C 4.619280 -3.664253 -0.885859
H 3.478991 0.394687 1.833940
H 2.003978 -0.562655 2.117112
H 1.892707 1.190610 1.781793
H 2.683736 0.844752 -0.528883
H 0.316329 0.753220 -0.180796
H 0.785011 -0.418824 -1.452868
H 2.702142 -1.595875 -1.208286
H 4.834851 -0.476045 0.437093
H 4.790183 -0.531700 -1.327186
H 7.179147 -1.542206 0.157972
H 6.946734 -1.786417 -1.590358
H 7.282014 -3.179056 -0.533450
H 3.920270 -3.253873 1.188283
H 5.585244 -4.052647 1.104229
H 3.594962 -3.620802 -1.266366
H 5.261969 -4.385214 -1.400253