27
H16 C8 N1 O1 F1
C 1.205238 0.180112 0.589615
C 2.652215 -0.109601 0.200842
C 2.894946 -0.449059 -1.285252
C 4.384270 -0.435147 -1.648827
C 4.886476 -1.853824 -1.313618
O 5.616662 -1.940344 -0.111507
C 3.594623 -2.703970 -1.301444
N 2.538845 -1.800101 -1.721052
C 1.184496 -2.263347 -1.566430
C 0.847591 -3.332441 -2.591277
F -0.480006 -3.704942 -2.439436
H 1.152247 0.580707 1.614024
H 0.569736 -0.715648 0.557707
H 0.759396 0.931442 -0.082704
H 3.047370 -0.918031 0.842076
H 3.258106 0.782032 0.432379
H 2.330223 0.278960 -1.893865
H 4.968480 0.327050 -1.113608
H 4.491339 -0.250837 -2.727878
H 5.579445 -2.209065 -2.089026
H 5.056042 -1.622729 0.606589
H 3.441671 -3.097518 -0.272077
H 3.661942 -3.577812 -1.968302
H 0.498232 -1.417574 -1.727629
H 0.973128 -2.669508 -0.553367
H 1.465553 -4.235108 -2.463767
H 0.990466 -2.943586 -3.612015