27
H16 C8 N1 O1 F1
O 5.047753 0.921429 0.458059
C 4.482555 -0.052319 1.303130
C 2.998161 0.258241 1.521804
C 2.297685 -0.881229 2.274856
C 2.680811 -0.918339 3.755158
C 2.450773 0.447449 4.398761
C 3.133362 1.553368 3.600514
N 2.721697 1.518573 2.207181
C 2.968829 2.742744 1.475131
C 1.809374 3.705549 1.663295
F 2.072830 4.896241 0.998453
H 6.001398 0.788866 0.442515
H 5.014552 -0.092188 2.271380
H 4.559161 -1.063121 0.856084
H 2.545958 0.333702 0.518365
H 2.522339 -1.844108 1.789418
H 1.210043 -0.722230 2.189905
H 3.741781 -1.202074 3.863656
H 2.097312 -1.693473 4.276851
H 2.817390 0.458347 5.437531
H 1.367635 0.657518 4.431729
H 4.237834 1.467238 3.710426
H 2.861925 2.533052 4.022456
H 3.070946 2.519428 0.404636
H 3.911279 3.240500 1.777786
H 1.646165 3.941396 2.727322
H 0.883190 3.273950 1.251457