39
H25 C12 N1 O1
C 7.112885 0.260976 -1.853054
O 5.939310 0.646656 -1.202274
C 5.877502 0.217258 0.131593
C 4.579875 0.665372 0.795863
C 3.354017 0.178758 0.013222
N 4.599160 2.091705 1.099546
C 3.705266 2.520537 2.164400
C 3.799302 4.051758 2.138846
C 4.360724 4.391605 0.730593
C 3.689251 5.550006 -0.021498
C 2.350783 5.303231 -0.737758
C 1.238135 4.780227 0.170475
C 1.904268 6.585954 -1.441896
C 4.376164 3.034973 0.014169
H 7.068856 0.631383 -2.887230
H 7.227291 -0.840705 -1.879765
H 8.014669 0.683083 -1.367590
H 6.731908 0.622509 0.709564
H 5.943786 -0.889911 0.175125
H 4.577706 0.157723 1.775707
H 3.368843 0.545010 -1.023087
H 2.417718 0.511459 0.486874
H 3.337533 -0.921589 -0.021876
H 4.007996 2.081415 3.128717
H 2.654988 2.204325 1.978286
H 4.484570 4.417114 2.918011
H 2.823356 4.517700 2.328550
H 5.413160 4.684691 0.871525
H 3.561078 6.389573 0.686726
H 4.398501 5.915402 -0.784352
H 2.523110 4.544610 -1.521673
H 1.045078 5.476144 1.004499
H 1.480030 3.796430 0.599780
H 0.297926 4.669675 -0.393709
H 1.698722 7.385662 -0.709834
H 0.983553 6.423015 -2.024585
H 2.677624 6.957987 -2.132891
H 5.161948 2.954114 -0.749222
H 3.404899 2.853919 -0.492178