28
H17 C9 N1 O1
C 0.882787 0.075670 -0.017077
C 2.374453 0.225488 0.259766
N 3.074685 -1.054867 0.148816
C 2.749399 -2.051583 1.163059
C 3.957254 -2.947269 1.453743
C 3.907687 -3.927075 0.287656
O 2.532016 -4.109571 0.006201
C 1.761239 -3.106256 0.647639
C 3.089709 1.219707 -0.644563
C 2.895216 1.235860 -2.134937
C 2.424310 2.396515 -1.299911
H 0.418725 -0.604385 0.712120
H 0.695344 -0.330064 -1.023700
H 0.366733 1.042015 0.077711
H 2.464569 0.620064 1.297230
H 4.074233 -0.866061 0.185254
H 2.369094 -1.578295 2.089080
H 3.802575 -3.476638 2.406205
H 4.902768 -2.389316 1.520500
H 4.364558 -4.901368 0.525923
H 4.428399 -3.516885 -0.598192
H 1.190805 -3.546561 1.488024
H 1.043733 -2.687617 -0.072813
H 4.119700 1.401770 -0.315272
H 2.133097 0.575989 -2.559182
H 3.776404 1.370824 -2.767948
H 1.346131 2.526556 -1.175913
H 2.985467 3.333554 -1.349279