34
H21 C10 N1 O2
C 1.230343 0.469786 -0.380663
O 2.528215 0.178528 0.042549
C 2.941025 0.945986 1.138017
C 4.362558 0.542086 1.497556
N 4.892150 1.308062 2.611210
C 4.419906 0.821833 3.891735
C 6.338939 1.442965 2.566780
C 6.899714 2.513527 3.501771
C 6.253568 3.883241 3.282462
C 6.925885 4.943266 4.144423
O 8.316234 5.001605 3.925249
C 8.955400 3.778589 4.203690
C 8.417375 2.644059 3.340778
H 0.995538 -0.178143 -1.237430
H 1.124786 1.525096 -0.701294
H 0.481998 0.282315 0.414742
H 2.253223 0.795719 1.994641
H 2.922220 2.028856 0.898134
H 4.988818 0.723728 0.610957
H 4.391115 -0.553336 1.687234
H 3.327097 0.705864 3.883541
H 4.661287 1.530877 4.697161
H 4.862329 -0.163400 4.161362
H 6.620291 1.712954 1.535275
H 6.844280 0.474051 2.789188
H 6.710863 2.214348 4.549270
H 5.176767 3.847717 3.507701
H 6.352670 4.165341 2.218870
H 6.720579 4.735135 5.215790
H 6.527090 5.943972 3.920542
H 8.829716 3.520839 5.276457
H 10.029904 3.932916 4.024525
H 8.924484 1.703509 3.611861
H 8.659054 2.854217 2.283764