36
H23 C10 N1 O2
C 1.076678 0.034564 -0.258990
O 2.457912 0.024642 -0.061071
C 2.829728 0.268590 1.269110
C 4.342483 0.207273 1.374371
C 4.909400 0.632940 2.733189
C 4.414915 -0.259517 3.873270
C 6.438971 0.670758 2.653207
N 7.047449 1.228795 3.847442
C 8.503793 1.286515 3.834435
C 9.026512 2.272203 2.795630
C 8.961655 1.680275 5.234852
O 10.357173 1.641640 5.303845
C 10.863266 2.039849 6.542971
H 0.881189 -0.160533 -1.323399
H 0.624883 1.011502 0.005127
H 0.564154 -0.745610 0.338479
H 2.352698 -0.476009 1.937575
H 2.467382 1.266617 1.596083
H 4.754448 0.863024 0.589194
H 4.675068 -0.818348 1.135181
H 4.575137 1.666661 2.936557
H 4.733296 -1.304633 3.718936
H 3.317560 -0.249932 3.951750
H 4.799550 0.072444 4.850148
H 6.719769 1.293813 1.789441
H 6.813091 -0.354721 2.428969
H 6.765470 0.664237 4.646993
H 8.949039 0.289893 3.617253
H 8.541962 3.253726 2.927593
H 8.838464 1.929760 1.767530
H 10.111917 2.397144 2.914447
H 8.518533 0.985191 5.979309
H 8.578244 2.694559 5.473352
H 11.959954 1.975535 6.500723
H 10.506070 1.389181 7.365379
H 10.582238 3.082502 6.789647