29
H17 C9 N1 O2
C 4.833149 -2.280351 3.193327
O 4.717666 -2.338613 1.778469
C 4.379340 -1.212176 1.160752
O 4.140522 -0.181268 1.744752
C 4.256066 -1.362753 -0.352910
C 2.838718 -1.848545 -0.662806
N 5.223086 -2.277591 -0.913701
C 6.577182 -1.814405 -1.106357
C 7.382490 -1.249392 0.080933
C 8.123050 -0.334387 -0.921847
C 8.493977 1.070432 -0.488443
C 6.941117 -0.529832 -1.898668
H 5.120295 -3.286469 3.520411
H 3.877456 -1.995740 3.657443
H 5.605793 -1.557224 3.493976
H 4.354824 -0.328715 -0.735932
H 2.691370 -2.868867 -0.277290
H 2.675844 -1.858378 -1.751334
H 2.087918 -1.185507 -0.210008
H 4.863439 -2.670247 -1.779697
H 7.141066 -2.656230 -1.539325
H 7.961938 -1.952155 0.698676
H 6.757818 -0.628838 0.742934
H 9.013473 -0.855845 -1.310741
H 7.613439 1.605926 -0.096499
H 8.896565 1.656163 -1.330749
H 9.259009 1.055728 0.304872
H 7.155434 -0.630647 -2.973826
H 6.188628 0.263245 -1.757350