30
H17 C9 N1 O1 F2
C 1.592678 0.853077 0.999556
C 0.928333 0.153952 -0.190790
C -0.124539 1.028428 -0.878679
C -1.397507 0.795039 -0.046155
C -1.162115 -0.560269 0.649362
N 0.127345 -1.024544 0.151582
C 0.733163 -2.062207 0.947987
C 1.947793 -2.673339 0.273550
O 2.372196 -3.768429 1.043795
C 3.519450 -4.383002 0.552395
C 3.845896 -5.554215 1.444976
F 2.886625 -6.510332 1.344087
F 5.012774 -6.113408 1.031054
H 2.146710 1.740607 0.657122
H 2.310947 0.192182 1.509133
H 0.851700 1.184982 1.744865
H 1.716237 -0.137637 -0.905416
H -0.271789 0.672647 -1.909719
H 0.171109 2.086631 -0.927631
H -2.299654 0.788083 -0.674083
H -1.532325 1.591030 0.700662
H -1.946021 -1.302560 0.422353
H -1.157681 -0.433925 1.752799
H -0.009347 -2.864735 1.090665
H 1.021572 -1.719574 1.966799
H 2.767328 -1.933877 0.183069
H 1.679213 -2.992411 -0.752958
H 4.389675 -3.698424 0.552218
H 3.383729 -4.758555 -0.481234
H 3.941895 -5.273313 2.505555