32
H20 C9 N1 O1 F1
C 1.086831 0.380583 -0.091372
C 2.595981 0.184006 -0.036894
O 3.277105 1.394482 -0.317084
C 3.046028 -0.423667 1.292759
C 4.546986 -0.683813 1.340076
N 5.052638 -1.008030 2.664627
C 4.542907 -2.272419 3.154279
C 6.504848 -0.940342 2.711571
C 7.075620 -0.850974 4.123455
C 8.585277 -0.631292 4.120830
C 9.151305 -0.559504 5.520504
F 10.524950 -0.356533 5.472930
H 0.792861 0.827941 -1.052620
H 0.754821 1.052644 0.718188
H 0.555167 -0.576217 0.024136
H 2.892488 -0.500587 -0.850317
H 3.040637 2.024579 0.375697
H 2.475061 -1.350821 1.459652
H 2.778705 0.267817 2.113127
H 5.052094 0.232462 0.999224
H 4.804216 -1.478495 0.600218
H 3.444836 -2.259087 3.203757
H 4.905003 -2.472228 4.172508
H 4.843905 -3.131889 2.512578
H 6.813747 -0.038766 2.158118
H 6.969916 -1.803806 2.180552
H 6.848271 -1.769102 4.689910
H 6.572693 -0.022144 4.650336
H 8.832040 0.303849 3.590452
H 9.085981 -1.451434 3.578971
H 8.967783 -1.495253 6.073869
H 8.706509 0.274380 6.088115