27
H17 C8 N1 O1
C 0.227554 -0.202624 -0.738560
O 1.604099 -0.079665 -0.542228
C 2.364938 -0.682755 -1.549237
C 3.838054 -0.493849 -1.237223
N 4.649824 -1.101550 -2.271746
C 6.055473 -1.281359 -1.991358
C 6.485732 -2.303026 -0.918961
C 7.682370 -1.382842 -0.583157
C 8.106125 -1.235369 0.865481
C 6.922752 -0.219410 -1.260828
H -0.283874 0.296933 0.096812
H -0.095697 -1.262124 -0.763100
H -0.101469 0.272645 -1.683941
H 2.128607 -0.236571 -2.538964
H 2.141183 -1.766406 -1.626585
H 4.050641 -0.980105 -0.271709
H 4.031316 0.588786 -1.092988
H 4.536253 -0.584776 -3.141148
H 6.542213 -1.541911 -2.944395
H 6.687767 -3.335010 -1.245204
H 5.771555 -2.331382 -0.079777
H 8.551220 -1.666789 -1.200097
H 7.249315 -0.951335 1.498715
H 8.880162 -0.459035 0.979767
H 8.517589 -2.178563 1.260564
H 7.493821 0.496296 -1.872643
H 6.332867 0.340456 -0.517131