21
H13 C6 N1 O1
C 0.954817 -0.052050 0.338399
N 2.358013 -0.091615 -0.012094
C 2.855359 -1.417712 -0.349119
C 2.515606 -1.846417 -1.781349
C 3.027896 -0.804331 -2.779129
C 2.526897 0.601363 -2.432012
O 1.157562 0.774884 -2.752057
C 2.820579 0.913648 -0.957090
H 0.783775 -0.630059 1.261991
H 0.257136 -0.462709 -0.423366
H 0.648961 0.986717 0.533982
H 2.459443 -2.142332 0.379896
H 3.955248 -1.414388 -0.234317
H 1.422698 -1.971724 -1.883667
H 2.955937 -2.832988 -1.995284
H 2.729099 -1.054447 -3.809487
H 4.131143 -0.794885 -2.754713
H 3.065087 1.338528 -3.050343
H 0.659391 0.050501 -2.357510
H 2.377079 1.887615 -0.697471
H 3.916656 1.012282 -0.847772