27
H17 C8 N1 O1
C 2.401095 -0.312249 1.413161
C 2.399964 0.012534 -0.064763
C 3.534656 0.771497 -0.708765
C 3.271816 -0.655492 -1.102659
C 4.272241 -1.774459 -0.869633
N 5.060948 -1.664142 0.344527
C 6.228576 -2.521787 0.365655
C 7.104786 -2.291504 1.598233
C 6.394783 -2.603152 2.909067
O 8.304402 -3.029087 1.477429
H 1.813465 0.437876 1.965843
H 3.414282 -0.305137 1.838248
H 1.949585 -1.297412 1.615744
H 1.403962 0.269692 -0.442750
H 4.417047 0.941556 -0.083795
H 3.312154 1.571737 -1.420576
H 2.774031 -0.782630 -2.070634
H 3.738234 -2.746960 -0.935167
H 4.972984 -1.764212 -1.722398
H 4.470862 -1.891132 1.141101
H 6.843737 -2.305349 -0.523112
H 5.973658 -3.606075 0.316099
H 7.405562 -1.230608 1.600367
H 6.031104 -3.645183 2.916301
H 5.533557 -1.938219 3.076486
H 7.088840 -2.473366 3.752836
H 8.074197 -3.965718 1.521765