32
H21 C9 N1 O1
C 6.982825 7.523148 -4.022166
C 6.788073 7.188831 -2.548141
C 7.608648 5.986606 -2.087034
C 7.418623 5.649034 -0.611882
C 8.232771 4.446251 -0.155216
N 8.044408 4.179877 1.257747
C 8.792667 3.039230 1.739971
C 8.539795 2.733486 3.221252
C 7.141265 2.203475 3.491758
O 8.717747 3.846938 4.067286
C 9.962773 4.472778 3.984429
H 6.378447 8.393179 -4.322634
H 6.691442 6.676396 -4.665097
H 8.037315 7.757543 -4.242003
H 5.719131 6.993541 -2.351824
H 7.054244 8.065665 -1.932119
H 8.678877 6.180740 -2.282592
H 7.342044 5.107967 -2.702017
H 6.348400 5.452971 -0.416395
H 7.692394 6.517469 0.011922
H 9.305988 4.642413 -0.331188
H 7.977205 3.568004 -0.790461
H 7.051400 4.041753 1.438662
H 9.866785 3.242396 1.588388
H 8.583552 2.104584 1.173223
H 9.271539 1.944373 3.498793
H 6.376080 2.958579 3.251606
H 7.034567 1.947924 4.556325
H 6.943949 1.300646 2.895346
H 10.039277 5.177074 4.826158
H 10.084264 5.046334 3.047108
H 10.800394 3.751506 4.063335