20
H12 C6 O2
C 0.933001 0.226930 -0.026675
O 2.323238 0.344001 0.021766
C 2.818845 0.611902 1.304844
C 4.327641 0.717141 1.264682
C 4.968906 1.682932 0.238930
C 6.018347 0.597925 -0.099147
O 7.285790 0.794454 0.472102
C 5.126360 -0.441547 0.619858
H 0.643231 0.016987 -1.066235
H 0.426496 1.157689 0.296565
H 0.563673 -0.598756 0.613000
H 2.518631 -0.191679 2.009649
H 2.387866 1.557673 1.695261
H 4.678547 0.926360 2.287520
H 5.374211 2.635178 0.615213
H 4.292967 1.882662 -0.605050
H 6.194206 0.418889 -1.170411
H 7.170072 0.955011 1.416918
H 5.653834 -1.136833 1.291406
H 4.507618 -1.014879 -0.085508