33
H21 C9 N1 O2
C 6.828871 -12.288916 -8.289568
O 6.928968 -10.928576 -7.994932
C 7.333625 -10.674445 -6.677646
C 7.410468 -9.176946 -6.452815
C 7.848719 -8.815302 -5.038512
C 7.925460 -7.313108 -4.802797
N 8.320379 -7.009359 -3.440286
C 8.398590 -5.586869 -3.161764
C 8.842049 -5.265641 -1.726627
C 8.203888 -3.986114 -1.215867
O 10.239241 -5.087273 -1.600430
C 11.028920 -6.207120 -1.867515
H 6.509294 -12.390729 -9.336780
H 6.085351 -12.800870 -7.646647
H 7.797263 -12.813944 -8.167795
H 8.322047 -11.140448 -6.479351
H 6.621101 -11.130831 -5.958443
H 6.420644 -8.738116 -6.664905
H 8.111571 -8.746843 -7.188145
H 8.838878 -9.261472 -4.834092
H 7.152993 -9.251870 -4.301660
H 6.933393 -6.862229 -4.985301
H 8.608621 -6.858169 -5.554464
H 9.218371 -7.451812 -3.255144
H 7.393077 -5.163290 -3.324122
H 9.078458 -5.037846 -3.851519
H 8.524566 -6.115111 -1.086133
H 8.439369 -3.143558 -1.885854
H 8.585223 -3.745476 -0.212850
H 7.110695 -4.090746 -1.159343
H 12.054048 -5.982784 -1.537621
H 11.074479 -6.455233 -2.945615
H 10.679469 -7.104416 -1.319239