21
H12 C7 N2
N 1.152680 -0.371561 0.243044
C 2.277300 -0.171366 0.067806
C 3.706876 0.089818 -0.156509
N 4.159765 1.247189 0.580683
C 5.614669 1.278934 0.683477
C 6.073987 2.425846 1.575584
C 5.524596 3.761500 1.079883
C 4.008480 3.679055 0.919346
C 3.617387 2.492412 0.047888
H 3.864322 0.168540 -1.253917
H 4.251790 -0.805616 0.180777
H 6.079724 1.384335 -0.323244
H 5.957155 0.317375 1.096375
H 7.174567 2.440184 1.607741
H 5.719466 2.238850 2.603588
H 5.981017 4.002907 0.103304
H 5.799176 4.574728 1.769869
H 3.608069 4.602935 0.473870
H 3.536133 3.562741 1.909604
H 3.976314 2.659481 -0.993474
H 2.520028 2.409183 -0.002095