17
H11 C4 N1 O1
C 6.723933 1.416670 2.533170
N 6.265951 0.272863 1.776386
C 4.834345 0.242347 1.570878
C 4.408149 -1.080727 0.942416
C 2.916000 -1.133633 0.655832
O 4.821729 -2.168300 1.753596
H 7.808870 1.346653 2.705316
H 6.230001 1.532677 3.522297
H 6.538731 2.346392 1.969293
H 6.525750 -0.586623 2.258042
H 4.537012 1.074009 0.908092
H 4.260866 0.378978 2.518813
H 4.967171 -1.200495 -0.000428
H 2.334806 -1.003432 1.584398
H 2.646426 -2.104757 0.215021
H 2.617811 -0.339298 -0.045148
H 4.300628 -2.135805 2.566608