36
H23 C11 N1 O1
C 3.739766 8.227699 -2.021967
C 2.551473 7.379737 -2.462078
C 1.986477 6.434559 -1.407055
C 1.627190 6.897064 0.024438
C 2.081806 5.510913 0.530040
C 2.888283 5.356079 -0.779265
N 2.924016 4.081928 -1.466890
C 4.120204 3.266038 -1.277597
C 4.361104 2.973476 0.198672
C 5.355675 3.871677 -1.973531
C 6.581235 2.969221 -1.931684
O 4.963546 4.132401 -3.309712
C 5.641747 5.184584 -3.931191
H 4.109932 8.842963 -2.856681
H 4.580889 7.606836 -1.674145
H 3.472120 8.913145 -1.202350
H 2.844093 6.770687 -3.336272
H 1.743113 8.042904 -2.815905
H 1.109199 5.914543 -1.830578
H 0.587050 7.201033 0.213877
H 2.296635 7.695608 0.379698
H 1.249018 4.790731 0.546606
H 2.627157 5.457133 1.484373
H 3.896992 5.784069 -0.618930
H 2.850667 4.265180 -2.466471
H 3.924723 2.305798 -1.789351
H 4.697257 3.871263 0.741876
H 5.122576 2.192677 0.334994
H 3.429260 2.621671 0.666401
H 5.603540 4.833298 -1.480498
H 6.337425 1.966751 -2.318889
H 6.967268 2.864176 -0.907372
H 7.393318 3.386407 -2.546195
H 5.223032 5.305972 -4.940737
H 6.726757 4.992703 -4.032317
H 5.514535 6.138318 -3.383544