30
H18 C9 N1 O1 F1
C 1.569612 3.180253 0.970255
C 1.936725 2.390406 -0.282941
O 2.561797 3.222141 -1.229556
C 2.854165 1.162181 -0.060689
C 2.313646 0.166559 0.962980
N 4.232856 1.629915 0.125035
C 5.293584 0.811602 -0.458876
C 5.843520 -0.033000 0.692086
C 5.760167 0.927368 1.888933
C 5.411247 0.247217 3.193039
F 6.368091 -0.711321 3.505150
C 4.683960 1.972387 1.476127
H 1.059244 2.556530 1.720199
H 0.891390 4.002422 0.695198
H 2.461215 3.628821 1.434505
H 1.000926 2.012167 -0.732300
H 3.506641 3.098325 -1.017972
H 2.862270 0.653720 -1.037337
H 2.303740 0.568215 1.986854
H 2.910763 -0.757104 0.965307
H 1.277497 -0.105430 0.706660
H 6.092020 1.467542 -0.851407
H 4.912034 0.218274 -1.301572
H 6.864034 -0.398668 0.510096
H 5.198373 -0.911104 0.858183
H 6.728199 1.436339 2.020216
H 5.372788 0.968360 4.025579
H 4.436061 -0.262777 3.119341
H 5.119623 2.984698 1.489563
H 3.841033 1.985991 2.181466