33
H20 C10 N1 O1 F1
C 0.810118 0.266136 0.123118
C 1.999882 0.270213 0.725156
C 2.916575 1.457600 0.811413
N 4.228873 1.175214 0.253703
C 4.213591 0.922145 -1.184606
C 4.570770 -0.516723 -1.547406
C 4.558938 -0.763640 -3.051799
C 4.908310 -2.192455 -3.398358
F 4.886563 -2.372601 -4.776135
C 5.265468 2.089472 0.687977
C 6.653663 1.482880 0.563995
O 7.586557 2.409713 1.041747
C 8.905462 1.958742 0.962344
H 0.178134 -0.626951 0.108539
H 0.420384 1.161158 -0.375177
H 2.371423 -0.643595 1.206120
H 3.052171 1.707847 1.876956
H 2.430961 2.337728 0.334665
H 4.912393 1.609755 -1.695040
H 3.215165 1.155840 -1.596420
H 3.857585 -1.195674 -1.049926
H 5.566434 -0.753278 -1.134954
H 5.277876 -0.091916 -3.551061
H 3.562067 -0.532721 -3.464350
H 4.186717 -2.898227 -2.954926
H 5.917598 -2.454593 -3.040397
H 5.101880 2.331869 1.749400
H 5.248147 3.052903 0.132067
H 6.876028 1.219791 -0.490716
H 6.691593 0.538723 1.145710
H 9.561631 2.746632 1.359266
H 9.208595 1.744156 -0.081570
H 9.066028 1.037667 1.556765