28
H18 C8 N2
C 6.574416 -1.694494 -2.605872
N 6.230704 -0.465574 -1.924527
C 4.829897 -0.365847 -1.572718
C 4.523859 0.970785 -0.891290
C 3.029969 1.125614 -0.636436
N 5.041876 2.082397 -1.694190
C 6.178807 2.785665 -1.123811
C 6.653511 3.882884 -2.042854
C 5.945751 5.212124 -2.038457
C 7.339811 5.095436 -1.483095
H 7.630052 -1.671652 -2.916995
H 5.959272 -1.897864 -3.509105
H 6.448462 -2.555940 -1.928638
H 6.441536 0.328295 -2.528963
H 4.568810 -1.191612 -0.887268
H 4.164423 -0.471320 -2.461141
H 5.041386 0.964537 0.086835
H 2.476865 1.178227 -1.589134
H 2.822332 2.046181 -0.069064
H 2.633424 0.273970 -0.062926
H 4.300924 2.753764 -1.883444
H 6.991383 2.057203 -0.964985
H 5.952561 3.223520 -0.126452
H 7.005389 3.529732 -3.018240
H 5.125324 5.344339 -1.325693
H 5.808015 5.731462 -2.990543
H 7.462886 5.154895 -0.397349
H 8.162605 5.531803 -2.055496