28
H16 C9 N1 O1 F1
F 0.920677 -0.096782 -0.680254
C 2.246950 -0.045770 -0.271117
C 2.727873 1.387365 -0.250632
C 4.167610 1.485821 0.244744
N 4.721022 2.832465 0.157658
C 4.315614 3.676060 1.245171
C 4.320727 5.162899 1.045550
C 3.014810 4.426820 1.156887
C 6.140338 2.896221 -0.114360
C 7.118791 1.913712 0.576844
O 7.435536 1.286756 -0.669215
C 6.636337 2.218571 -1.401491
H 2.839441 -0.658995 -0.969997
H 2.308400 -0.502413 0.730495
H 2.055373 1.971441 0.395363
H 2.664451 1.810452 -1.266097
H 4.789423 0.808232 -0.360739
H 4.224284 1.099024 1.283127
H 4.596340 3.325583 2.252649
H 4.603628 5.528006 0.054335
H 4.646064 5.791391 1.878275
H 2.436093 4.306464 0.238201
H 2.421336 4.537791 2.068102
H 6.450055 3.945329 -0.028621
H 6.674275 1.211023 1.301621
H 8.001018 2.388119 1.041150
H 5.858189 1.729163 -2.012355
H 7.243346 2.865231 -2.058973