25
H15 C8 N1 O1
C 0.869718 1.095460 -0.176449
C 1.300625 -0.372504 0.014230
C -0.183837 -0.799653 -0.057820
N -0.521141 -1.233803 -1.406838
C -1.800904 -1.899657 -1.625720
C -3.033978 -1.020726 -1.374760
C -3.380375 -1.286508 0.092381
O -2.800259 -2.539686 0.425316
C -2.121751 -3.078276 -0.692712
C -0.558719 0.680580 0.229703
H 0.920467 1.399418 -1.232239
H 1.372950 1.858215 0.436194
H 1.720615 -0.554326 1.014528
H 1.974632 -0.814714 -0.736942
H -0.509357 -1.519202 0.715852
H 0.210196 -1.866353 -1.726190
H -1.788261 -2.246522 -2.669601
H -3.853047 -1.364967 -2.023651
H -2.850538 0.038752 -1.597164
H -4.470501 -1.324003 0.260105
H -2.968770 -0.511860 0.762306
H -2.760577 -3.816445 -1.216598
H -1.214678 -3.600190 -0.347047
H -0.741427 0.841081 1.303282
H -1.395873 1.106740 -0.340627