27
H17 C8 N1 O1
C 1.042682 -0.081499 0.381708
C 2.540797 -0.050774 0.066119
C 2.935059 1.013275 -0.975503
C 2.680340 0.574235 -2.420505
O 1.301037 0.478316 -2.711244
C 3.335312 -0.785836 -2.699978
C 4.864730 -0.746491 -2.728169
N 2.731026 -1.729468 -1.753114
C 2.929974 -3.120627 -2.091315
C 3.058339 -1.431452 -0.364335
H 0.666198 0.927003 0.614300
H 0.847526 -0.721807 1.256932
H 0.443673 -0.473071 -0.452537
H 3.058092 0.203959 1.005958
H 4.008425 1.242879 -0.869799
H 2.393141 1.953562 -0.785447
H 3.102460 1.327250 -3.106419
H 1.058195 -0.411530 -2.413364
H 2.992692 -1.091525 -3.702989
H 5.305270 -0.421054 -1.774524
H 5.204394 -0.047155 -3.507504
H 5.278723 -1.737230 -2.970031
H 2.655329 -3.294804 -3.143278
H 2.285913 -3.756436 -1.463343
H 3.975684 -3.468292 -1.952372
H 4.152498 -1.496216 -0.183306
H 2.597329 -2.206925 0.268321