28
H16 C8 N1 O2 F1
C 1.170112 0.302490 -0.281931
O 2.528690 0.178820 0.118801
C 3.018735 1.144085 0.898882
O 2.367969 2.081398 1.283407
C 4.485729 0.887082 1.184615
N 5.042049 1.767621 2.179000
C 4.571123 1.440189 3.510455
C 6.491668 1.848202 2.087599
C 7.092125 2.996290 2.891677
C 8.584227 3.165225 2.623042
C 9.183928 4.287112 3.439513
F 10.539341 4.411106 3.160958
H 0.953805 -0.568919 -0.910725
H 1.011499 1.225822 -0.858221
H 0.501571 0.306137 0.591456
H 5.006147 1.034193 0.223772
H 4.599669 -0.191986 1.428138
H 3.473798 1.385404 3.519134
H 4.860391 2.216653 4.232553
H 4.968776 0.466789 3.874989
H 6.752992 1.995519 1.027037
H 6.973550 0.892345 2.399068
H 6.938605 2.831223 3.970859
H 6.552776 3.923396 2.632709
H 8.756222 3.374424 1.553849
H 9.119770 2.230291 2.859748
H 9.077766 4.095609 4.520028
H 8.701876 5.250922 3.206897