39
H25 C12 N1 O1
C 4.292542 -4.878278 1.680098
C 5.008614 -4.658274 0.578485
C 6.186726 -3.727723 0.483654
C 7.472728 -4.514105 0.221951
O 7.778881 -5.298658 1.336444
C 8.932206 -6.067608 1.170430
N 5.976144 -2.786760 -0.612039
C 6.712458 -1.537327 -0.496276
C 6.739501 -0.745849 -1.812360
C 5.321757 -0.387818 -2.264177
C 7.515542 -1.478949 -2.923915
C 8.994231 -1.098763 -3.090006
C 9.831303 -1.325114 -1.830926
C 9.599384 -1.850400 -4.276089
H 3.448705 -5.574787 1.683014
H 4.526771 -4.373597 2.623843
H 4.752971 -5.179037 -0.354357
H 6.305901 -3.211772 1.459436
H 8.301013 -3.810502 0.002683
H 7.335518 -5.139224 -0.685174
H 9.098025 -6.640134 2.094291
H 9.826023 -5.440280 0.982301
H 8.837421 -6.781230 0.328399
H 4.981981 -2.583455 -0.683298
H 7.743779 -1.772407 -0.198560
H 6.300806 -0.889589 0.307030
H 7.262920 0.201666 -1.590453
H 4.764894 -1.286237 -2.578636
H 5.343576 0.300849 -3.123263
H 4.750756 0.099204 -1.456521
H 7.018997 -1.291448 -3.891103
H 7.430894 -2.567196 -2.753106
H 9.030463 -0.017913 -3.322680
H 9.782819 -2.378908 -1.506702
H 9.496654 -0.696957 -0.991395
H 10.889886 -1.082353 -2.017159
H 9.595664 -2.938463 -4.092372
H 10.642969 -1.546134 -4.455703
H 9.031618 -1.667311 -5.202447