32
H19 C9 N1 O1 F2
C 5.796944 -1.110877 6.755501
C 4.798656 -0.324349 5.897827
C 3.689728 -1.264365 5.411207
C 4.188081 0.805413 6.737324
C 5.574235 0.260408 4.701868
N 4.732102 1.002975 3.778812
C 5.280860 1.299103 2.459478
C 5.218196 0.015390 1.617553
O 3.988041 -0.619353 1.805168
C 6.683627 1.913349 2.416349
C 6.759553 3.304552 2.984287
F 6.489508 3.310642 4.324237
F 8.023054 3.796211 2.850812
H 5.303553 -1.536219 7.644068
H 6.619121 -0.465040 7.104809
H 6.241325 -1.943816 6.186345
H 3.205943 -1.771006 6.262020
H 4.091416 -2.040183 4.739013
H 2.908810 -0.714537 4.864275
H 3.682820 0.400421 7.629008
H 3.436562 1.375604 6.167740
H 4.963163 1.510863 7.079546
H 6.037639 -0.575921 4.152537
H 6.406482 0.876570 5.094675
H 4.386771 1.852607 4.215322
H 4.579237 2.017208 2.001838
H 5.345985 0.270697 0.552259
H 6.065349 -0.648959 1.888622
H 3.727063 -0.330950 2.699434
H 7.006244 1.984058 1.365709
H 7.418275 1.282075 2.941003
H 6.065416 4.012979 2.504456