23
H14 C7 O2
C 4.175337 -0.353799 3.807571
C 5.141116 -0.683894 2.663411
C 6.523195 -0.089090 2.962063
C 5.259615 -2.216301 2.531487
O 5.718803 -2.866275 3.689340
C 4.607648 -0.166181 1.313650
C 4.405265 1.324850 1.230047
C 5.426745 2.219259 0.682711
O 4.284730 1.867551 -0.076287
H 4.491409 -0.870051 4.726302
H 3.150588 -0.683710 3.570030
H 4.144640 0.725888 4.020507
H 6.925271 -0.478953 3.911242
H 6.478407 1.006186 3.060779
H 7.243014 -0.328441 2.161898
H 5.903064 -2.452238 1.660633
H 4.262009 -2.633742 2.315907
H 6.646937 -2.638489 3.814515
H 3.641020 -0.656088 1.100716
H 5.298282 -0.461949 0.505650
H 3.694653 1.753387 1.949415
H 6.376762 1.795325 0.332809
H 5.476759 3.263727 1.015134