21
H13 C5 N1 O2
C 3.025368 0.466855 -1.507389
N 4.449694 0.608692 -1.281093
C 5.142070 0.950025 -2.505368
C 4.779177 1.526519 -0.207797
C 4.462198 1.029483 1.199723
O 3.086560 1.038090 1.522534
C 5.230474 1.834406 2.254841
O 6.625040 1.779234 2.106155
H 2.841638 -0.295276 -2.280743
H 2.552096 1.416039 -1.850393
H 2.518335 0.156748 -0.585401
H 4.934447 0.196015 -3.280715
H 6.230039 0.973454 -2.338166
H 4.841016 1.941512 -2.914015
H 4.295097 2.524959 -0.347086
H 5.865174 1.702854 -0.232812
H 4.780809 -0.025709 1.264640
H 2.748383 1.925025 1.342978
H 4.902215 1.483423 3.250851
H 4.943007 2.897072 2.174274
H 6.902821 0.865139 2.242429