33
H20 C10 N1 O1 F1
C 2.721430 -1.575993 -0.854248
C 3.657790 -0.428136 -0.497198
C 3.058061 0.989561 -0.515439
C 2.313800 1.263081 -1.821132
C 2.159965 1.168757 0.729039
N 1.267413 2.322824 0.693350
C -0.107521 2.022686 0.294687
C -0.912929 1.795822 1.602826
C 0.012710 2.291751 2.712910
F 0.579081 1.194887 3.375891
C 1.112001 3.030355 1.955542
O 4.218194 1.820273 -0.438264
C 4.061987 3.192545 -0.221526
H 3.232528 -2.540760 -0.713750
H 2.395568 -1.529717 -1.904444
H 1.818172 -1.590660 -0.223854
H 4.509492 -0.416955 -1.196124
H 4.087584 -0.592836 0.505694
H 1.442200 0.602210 -1.933125
H 2.986718 1.096780 -2.676720
H 1.945286 2.297758 -1.858873
H 2.840363 1.261266 1.589264
H 1.593442 0.233029 0.890692
H -0.140470 1.157425 -0.379499
H -0.525710 2.882053 -0.255786
H -1.143036 0.735468 1.778672
H -1.863640 2.346903 1.597816
H -0.486617 2.901320 3.479935
H 2.050778 3.085375 2.524001
H 0.768721 4.062770 1.764249
H 5.047511 3.655304 -0.385323
H 3.745132 3.432105 0.809535
H 3.343998 3.666937 -0.913408