14
H9 C4 N1
C 1.314689 0.187262 0.066208
C 0.595448 -1.182013 0.082092
C -0.892422 -0.827844 -0.141293
N -1.061596 0.561421 0.277272
C 0.175039 1.208945 -0.153525
H 2.081103 0.254761 -0.720282
H 1.818189 0.374374 1.027003
H 0.728087 -1.680228 1.054708
H 0.973457 -1.869644 -0.689125
H -1.584752 -1.487904 0.401369
H -1.138314 -0.904873 -1.214929
H -1.090841 0.582721 1.297346
H 0.328667 2.156511 0.383073
H 0.090915 1.449801 -1.227717