33
H21 C10 N1 O1
C 1.034776 0.418417 -0.517364
C 2.516621 0.190393 -0.251548
C 2.785592 -0.707481 0.957009
O 2.134885 -1.959274 0.830701
C 4.294214 -0.857688 1.206297
N 4.714513 -1.613771 2.372415
C 4.242839 -1.033563 3.619840
C 5.019273 -1.565944 4.817173
C 4.931011 -3.086851 4.862454
C 5.357997 -3.675066 3.522229
C 4.582454 -3.075645 2.341552
C 5.090144 -3.682227 1.038376
H 0.878498 1.038951 -1.412996
H 0.553188 0.928098 0.333083
H 0.513359 -0.538323 -0.669414
H 3.025118 1.156004 -0.093885
H 2.992300 -0.266937 -1.139079
H 2.323992 -0.238754 1.842782
H 2.510885 -2.408285 0.063269
H 4.711607 0.160253 1.300659
H 4.757739 -1.286263 0.303090
H 3.159838 -1.234010 3.785601
H 4.352492 0.061170 3.555730
H 4.624390 -1.118314 5.743244
H 6.074771 -1.256619 4.725941
H 3.887650 -3.382960 5.073118
H 5.548039 -3.494912 5.678981
H 5.217793 -4.768091 3.520972
H 6.434452 -3.485012 3.360836
H 3.515505 -3.362800 2.458567
H 6.114675 -3.338835 0.820254
H 4.456540 -3.437621 0.174416
H 5.108973 -4.778989 1.124935