31
H19 C9 N1 O2
C -0.747075 1.118438 -6.657106
C 0.725863 1.132012 -6.308462
C 0.972136 1.262333 -4.807584
N 2.398602 1.199371 -4.524504
C 2.792091 1.536718 -3.152254
C 2.005387 0.816968 -2.059320
C 2.765991 3.074153 -3.015567
C 3.491816 3.574855 -1.780032
O 3.359721 3.633466 -4.159754
C 2.970021 -0.032036 -5.042521
C 2.680011 -0.139113 -6.530253
O 1.301538 -0.065176 -6.795819
H -1.229948 2.052478 -6.334056
H -1.253990 0.273578 -6.165321
H -0.880387 1.016310 -7.744016
H 1.218301 1.994353 -6.805050
H 0.414172 0.451975 -4.292532
H 0.564380 2.222768 -4.458237
H 3.851526 1.238120 -3.074080
H 0.972659 1.192037 -1.983973
H 2.484973 0.954854 -1.079393
H 1.962660 -0.265544 -2.255224
H 1.703431 3.393700 -2.941361
H 4.533516 3.215500 -1.769540
H 2.994670 3.243643 -0.856603
H 3.509021 4.675205 -1.777506
H 3.176628 2.964208 -4.845763
H 2.556887 -0.925992 -4.527806
H 4.059254 -0.026515 -4.883967
H 3.037599 -1.102639 -6.921545
H 3.217096 0.671800 -7.063070