33
H20 C10 N1 O1 F1
C 0.658838 -0.193692 0.192420
C 2.188978 -0.131987 0.204377
C 2.722804 1.013862 -0.671641
C 2.605845 0.703272 -2.167536
N 3.253958 -0.550391 -2.548453
C 4.703551 -0.496404 -2.624541
C 5.234118 0.137575 -3.912645
O 5.030782 1.533343 -3.982488
C 6.704160 -0.200490 -4.095294
F 7.170552 0.322024 -5.287967
C 2.740398 -1.653986 -1.747940
C 2.868514 -1.452114 -0.229071
C 2.373833 -2.677671 0.531331
H 0.234831 0.783991 0.471728
H 0.276929 -0.933028 0.912442
H 0.253558 -0.456256 -0.797479
H 2.494176 0.067902 1.247012
H 3.782633 1.194524 -0.422474
H 2.186273 1.950501 -0.446132
H 3.036397 1.516403 -2.765377
H 1.540564 0.632293 -2.448415
H 5.078247 -1.531152 -2.584451
H 5.173753 0.029675 -1.764478
H 4.673348 -0.288882 -4.759984
H 5.463965 1.933544 -3.216880
H 6.854077 -1.291429 -4.113109
H 7.307616 0.226993 -3.275458
H 3.256171 -2.581706 -2.045145
H 1.674341 -1.796529 -2.003266
H 3.945540 -1.334984 -0.008995
H 1.336611 -2.934245 0.261215
H 2.405520 -2.514324 1.620776
H 2.997829 -3.557390 0.306296