24
H15 C7 N1 O1
C 1.027067 0.676082 0.305214
C 2.070820 -0.188312 -0.393094
N 2.701707 -1.160753 0.501972
C 4.084862 -1.458586 0.137873
C 4.023196 -2.533030 -0.971434
C 2.686517 -3.250600 -0.696972
C 2.106258 -2.507302 0.530759
C 0.592213 -2.620249 0.685262
O -0.171162 -2.358317 -0.468331
H 0.627842 1.433846 -0.386984
H 1.479290 1.193970 1.164827
H 0.171786 0.099485 0.691749
H 2.861049 0.481419 -0.765412
H 1.637122 -0.661097 -1.297468
H 4.599701 -1.871174 1.022578
H 4.621341 -0.545909 -0.158118
H 4.889954 -3.209341 -0.934493
H 4.020456 -2.060479 -1.965710
H 2.807872 -4.324041 -0.488505
H 1.994483 -3.157141 -1.546772
H 2.513885 -2.987451 1.438901
H 0.378394 -3.666128 0.956613
H 0.266298 -2.000376 1.540829
H -0.221513 -1.406337 -0.601425