19
H12 C5 O2
C 1.016206 0.073128 0.049102
C 2.525886 0.107590 -0.033919
O 3.066903 -0.522665 1.096976
C 4.467133 -0.538525 1.115287
C 4.944802 -1.241978 2.370896
C 6.462629 -1.285260 2.482227
O 6.907168 -1.981722 3.620497
H 0.573527 0.563114 -0.830838
H 0.664214 0.596572 0.951257
H 0.652342 -0.965086 0.087425
H 2.883038 1.156167 -0.097515
H 2.871186 -0.399125 -0.958612
H 4.867040 0.496775 1.081957
H 4.861408 -1.056142 0.215722
H 4.551718 -2.271596 2.386084
H 4.527500 -0.720534 3.250096
H 6.867271 -0.253732 2.456483
H 6.885579 -1.810480 1.610252
H 6.572392 -1.517302 4.396611