25
H15 C8 N1 O1
C 1.139062 -0.476295 -0.471163
O 2.451272 -0.206568 -0.079365
C 2.548920 0.799993 0.889658
C 4.028337 0.992676 1.220257
N 4.331543 1.993395 2.209046
C 3.941017 1.756187 3.588021
C 4.280372 3.062721 4.278805
C 5.611381 3.681446 3.949815
C 4.383016 4.105443 3.192205
C 4.102127 3.390748 1.884665
H 1.164035 -1.274667 -1.226957
H 0.647485 0.411260 -0.916645
H 0.513775 -0.818081 0.377367
H 1.980458 0.520209 1.800121
H 2.108212 1.745938 0.513765
H 4.556378 1.244516 0.284544
H 4.429938 0.022729 1.560304
H 4.483975 0.883303 3.992137
H 2.855243 1.557338 3.717792
H 3.808494 3.284303 5.238696
H 6.359146 3.070745 3.434177
H 6.015249 4.395029 4.672799
H 3.988604 5.114495 3.331483
H 4.761701 3.701735 1.055038
H 3.057841 3.612851 1.575963