28
H17 C9 N1 O1
C 0.985438 -0.136384 1.244206
C 2.289042 0.134220 0.527769
O 3.178427 -0.927986 0.773913
C 4.429269 -0.764156 0.177286
C 5.416630 0.144705 0.943281
N 6.059622 -1.046104 1.508937
C 7.500564 -1.056028 1.594439
C 8.075167 -2.119209 2.510992
C 7.420557 -2.446665 3.821816
C 7.429243 -3.463025 2.709635
C 5.375877 -1.912872 0.539674
H 0.270381 0.678333 1.056658
H 1.147430 -0.212674 2.330245
H 0.537634 -1.078936 0.893838
H 2.722757 1.092798 0.874508
H 2.117001 0.239235 -0.562748
H 4.323585 -0.541306 -0.899654
H 4.979652 0.837596 1.682234
H 6.072354 0.717045 0.259099
H 7.813527 -0.070171 1.978706
H 7.960449 -1.157377 0.584757
H 9.170470 -2.122827 2.512374
H 6.467327 -1.953532 4.032305
H 8.055976 -2.621540 4.694464
H 6.480966 -3.667886 2.207456
H 8.083048 -4.334001 2.809483
H 4.879111 -2.803321 0.957296
H 6.022226 -2.221292 -0.304729