30
H18 C9 N1 O1 F1
F 1.029401 0.027367 0.304788
C 2.393000 0.066459 0.077144
C 2.801947 -1.176819 -0.683413
O 4.179264 -1.106608 -0.898334
C 4.700602 -2.203247 -1.598353
C 6.195948 -2.011909 -1.769798
N 6.764803 -3.128676 -2.497176
C 8.213066 -3.163812 -2.537722
C 8.745950 -4.394431 -3.281968
C 10.211535 -4.065539 -3.629122
C 10.365156 -2.536757 -3.417713
C 8.939367 -2.006807 -3.245562
H 2.912643 0.116702 1.046862
H 2.629378 0.971743 -0.503798
H 2.243866 -1.224975 -1.639973
H 2.528040 -2.076456 -0.096729
H 4.215039 -2.295257 -2.592100
H 4.507069 -3.149767 -1.055769
H 6.661945 -1.964975 -0.771080
H 6.371747 -1.025867 -2.247245
H 6.407231 -3.129274 -3.452956
H 8.571934 -3.198239 -1.491556
H 8.151785 -4.520400 -4.203684
H 8.630967 -5.318031 -2.695553
H 10.445552 -4.354884 -4.664529
H 10.909569 -4.620161 -2.984133
H 10.903382 -2.045893 -4.242061
H 10.942172 -2.339910 -2.500023
H 8.459493 -1.844528 -4.228043
H 8.895137 -1.057009 -2.691233