18
H8 C5 O5
O 1.475961 -0.535561 1.232416
C 2.649260 -0.381995 1.050924
O 3.186603 0.824685 0.878614
C 4.602748 0.927498 0.845974
C 5.146146 1.115955 2.255709
O 4.813056 0.033023 3.091738
C 6.647768 1.367884 2.233189
O 7.111895 1.663332 3.542811
C 7.457593 0.644417 4.328326
O 7.720443 0.794592 5.486542
H 3.380124 -1.217906 0.975871
H 4.843092 1.795706 0.218607
H 5.044024 0.031192 0.374897
H 4.655840 1.996500 2.699480
H 5.221372 -0.768519 2.734631
H 6.886348 2.238898 1.609153
H 7.183410 0.494093 1.821258
H 7.509966 -0.334155 3.801951