32
H21 C9 N1 O1
C 5.182346 -3.818902 5.447019
C 4.632916 -2.409149 5.272619
C 5.315152 -1.635941 4.150042
N 4.743007 -0.308341 4.010683
C 5.242881 0.521424 2.913693
C 4.742122 0.004724 1.566392
C 6.768439 0.722690 2.893361
C 7.339864 1.275273 4.194958
C 8.844255 1.519601 4.140903
C 9.412382 2.048968 5.450303
O 10.792081 2.320073 5.386719
H 4.672011 -4.349925 6.265116
H 6.259370 -3.803644 5.680988
H 5.050754 -4.415099 4.529304
H 4.751410 -1.846272 6.215820
H 3.549703 -2.442850 5.067667
H 5.178551 -2.185272 3.202983
H 6.410166 -1.625431 4.342013
H 4.858370 0.193787 4.888955
H 4.788082 1.515260 3.073198
H 5.210756 -0.955614 1.297508
H 4.977694 0.720264 0.763775
H 3.651644 -0.142833 1.591002
H 7.015100 1.410555 2.066102
H 7.264483 -0.233808 2.648716
H 7.118197 0.577339 5.021574
H 6.823580 2.219315 4.447039
H 9.085147 2.237182 3.337696
H 9.360637 0.576098 3.884543
H 9.177943 1.338397 6.268659
H 8.919295 3.000235 5.710460
H 11.242792 1.492017 5.183841