36
H23 C11 N1 O1
C 16.625145 -7.560705 3.718565
C 15.401361 -7.449059 3.198629
C 14.159141 -7.097510 3.963132
C 13.506135 -5.800918 3.474554
C 12.217416 -5.456850 4.215313
C 11.565031 -4.165190 3.733088
C 10.295597 -3.820207 4.520721
N 9.495576 -2.707070 4.059305
C 8.734162 -2.928539 2.855238
C 10.011179 -1.360939 4.282468
C 8.978940 -0.495289 5.010812
C 10.487185 -0.627476 3.019095
O 11.414916 -1.334794 2.238504
H 17.490176 -7.813327 3.097679
H 16.808306 -7.406333 4.788266
H 15.267932 -7.608846 2.119909
H 14.391789 -7.016290 5.038479
H 13.428665 -7.920128 3.857592
H 13.295166 -5.882972 2.393355
H 14.226662 -4.971117 3.583572
H 12.429012 -5.379451 5.297439
H 11.501624 -6.291569 4.105751
H 11.324575 -4.246591 2.659916
H 12.291019 -3.339558 3.828237
H 10.574635 -3.635744 5.573984
H 9.645435 -4.714138 4.536048
H 8.214359 -3.898315 2.919415
H 9.336082 -2.929464 1.923453
H 7.955992 -2.155713 2.743230
H 10.890370 -1.462328 4.943134
H 8.064344 -0.385996 4.405036
H 9.365770 0.514572 5.221272
H 8.698409 -0.963101 5.965879
H 10.887072 0.358526 3.327092
H 9.624698 -0.421845 2.364684
H 12.175173 -1.544926 2.792453