15
H6 C4 O5
C 1.258854 0.106456 0.005154
O 2.680146 0.183246 -0.043139
C 3.221129 1.297432 0.414829
O 2.629930 2.244912 0.863622
O 4.543513 1.198389 0.297631
C 5.287136 2.308697 0.739296
C 6.759897 1.950596 0.702193
O 7.200360 0.890661 0.362638
O 7.569659 2.937897 1.093751
H 0.994401 -0.871513 -0.412059
H 0.803379 0.904771 -0.598099
H 0.898315 0.179455 1.041235
H 5.008913 2.590630 1.768221
H 5.108843 3.186122 0.094518
H 7.074827 3.735719 1.337967