36
H23 C11 N1 O1
C 0.148495 -0.436220 2.031938
C 1.629997 -0.725689 1.940569
O 2.323170 0.472459 1.710113
C 3.709265 0.311069 1.605694
C 4.330968 1.683698 1.404215
N 5.758222 1.618484 1.167083
C 6.333228 2.787175 0.527531
C 7.534667 2.472203 -0.373413
C 7.137339 1.548997 -1.522302
C 8.161659 3.767631 -0.883675
C 6.499992 1.002815 2.239155
C 7.703140 1.634474 2.876969
C 6.425490 1.524110 3.658645
H -0.411678 -1.365130 2.215340
H -0.219185 0.011429 1.095906
H -0.060834 0.263377 2.855670
H 1.830534 -1.448521 1.123322
H 1.987305 -1.201362 2.876987
H 3.973833 -0.341341 0.747706
H 4.110039 -0.175183 2.517491
H 4.066094 2.317837 2.278612
H 3.849533 2.136752 0.524175
H 6.617570 3.576783 1.255476
H 5.547685 3.237146 -0.101658
H 8.289238 1.949037 0.239230
H 6.418368 2.047584 -2.195210
H 6.660927 0.632679 -1.143033
H 8.012833 1.257465 -2.124034
H 7.438564 4.347245 -1.482795
H 9.035140 3.563728 -1.522762
H 8.496912 4.409141 -0.052705
H 6.554693 -0.090269 2.162879
H 8.006512 2.633013 2.553616
H 8.536227 0.974627 3.133014
H 5.863765 2.449763 3.815528
H 6.359594 0.802979 4.477893