28
H17 C9 N1 O1
C 1.812308 1.001091 -0.198565
C 2.788974 0.378640 0.461976
C 3.154012 -1.066011 0.278276
N 4.545025 -1.272619 -0.105295
C 4.978095 -2.671499 0.053768
C 5.857425 -2.972859 -1.156127
C 5.230751 -2.098542 -2.246594
C 6.062727 -1.924497 -3.509161
C 4.901996 -0.816850 -1.462856
C 6.079097 0.168481 -1.359894
O 5.882414 1.056909 -0.296644
H 1.568494 2.050069 -0.005418
H 1.216400 0.482207 -0.958043
H 3.369713 0.928925 1.212423
H 2.455021 -1.538879 -0.444876
H 3.004053 -1.578156 1.244096
H 4.100534 -3.345571 0.044092
H 5.496065 -2.825102 1.014362
H 5.862503 -4.042658 -1.411451
H 6.901991 -2.669495 -0.976082
H 4.267064 -2.559144 -2.526739
H 7.063041 -1.519813 -3.289585
H 5.571011 -1.245014 -4.223202
H 6.203853 -2.892655 -4.014446
H 4.046283 -0.281197 -1.904754
H 7.027399 -0.393194 -1.234355
H 6.170376 0.749090 -2.291804
H 5.512415 0.481667 0.395509