34
H21 C10 N1 O2
C 1.542841 -0.948949 0.319355
O 2.655602 -0.105453 0.291111
C 2.547778 1.004804 -0.578860
C 1.743621 2.133982 0.050571
C 3.998107 1.381127 -0.922761
N 4.220862 2.485524 -1.823755
C 3.580857 2.394042 -3.119184
C 4.254890 3.327142 -4.121747
C 4.279301 4.756451 -3.588470
C 4.942369 4.805356 -2.208321
O 6.314826 4.479042 -2.244264
C 7.130775 5.416728 -2.879991
C 4.249515 3.822694 -1.269324
H 1.764289 -1.776080 1.009581
H 1.324112 -1.378326 -0.678203
H 0.626661 -0.443042 0.678478
H 2.035988 0.682709 -1.508562
H 2.274282 2.555524 0.918974
H 0.758860 1.775386 0.387795
H 1.565138 2.940348 -0.675300
H 4.459903 0.470905 -1.346569
H 4.523245 1.589040 0.024733
H 2.495834 2.647052 -3.068882
H 3.645357 1.351058 -3.469526
H 3.726881 3.281148 -5.087189
H 5.287949 2.982535 -4.290409
H 3.247609 5.132858 -3.479208
H 4.785099 5.437034 -4.290639
H 4.824137 5.823901 -1.785136
H 8.176835 5.143800 -2.676836
H 6.960454 6.442685 -2.497128
H 6.994281 5.437678 -3.977617
H 3.237430 4.233974 -1.062981
H 4.793381 3.800511 -0.312664