36
H23 C11 N1 O1
C 1.301314 0.082364 -0.476897
O 2.526752 -0.557225 -0.678665
C 2.932021 -1.425815 0.358666
C 2.159451 -2.739246 0.340371
C 4.435158 -1.616496 0.179798
N 5.008769 -2.446003 1.221167
C 6.470503 -2.441770 1.282680
C 6.972786 -1.173888 1.968435
C 6.926267 -3.711920 2.006519
C 8.430698 -3.882533 2.117331
C 8.994291 -5.243314 2.588755
C 10.132229 -5.086819 1.557553
C 9.269123 -4.037010 0.825883
H 1.153794 0.793157 -1.303045
H 1.282690 0.648112 0.475358
H 0.443537 -0.616169 -0.473054
H 2.768321 -0.931612 1.338448
H 2.339034 -3.278846 -0.603731
H 1.077226 -2.570839 0.443897
H 2.468152 -3.381238 1.179186
H 4.894981 -0.617207 0.213368
H 4.619458 -2.012219 -0.842991
H 4.700186 -3.405795 1.079550
H 6.902156 -2.468402 0.257387
H 6.653680 -1.156500 3.023460
H 6.578175 -0.270146 1.479987
H 8.070469 -1.106703 1.933784
H 6.514557 -4.583808 1.465354
H 6.471983 -3.724199 3.013992
H 8.860836 -3.080388 2.739078
H 8.314918 -6.068128 2.318563
H 9.266828 -5.346549 3.650283
H 10.438099 -5.980652 0.993464
H 11.028669 -4.633073 2.007544
H 8.671220 -4.496132 0.021321
H 9.769039 -3.142458 0.423830