34
H21 C11 N1 O1
C 6.374942 -2.141358 -1.319028
O 5.897698 -0.857633 -1.054915
C 4.514490 -0.815404 -0.858116
C 4.052426 0.615528 -0.608670
C 2.573895 0.626616 -0.194705
N 4.364401 1.477202 -1.730316
C 3.751670 1.204096 -3.040899
C 3.341106 2.589634 -3.514828
C 3.291440 3.103233 -4.946375
C 3.460433 4.643823 -4.760295
C 3.947909 4.873695 -3.295644
C 4.394396 3.481923 -2.873610
C 4.441167 2.914809 -1.467305
H 7.463896 -2.080712 -1.459997
H 5.928283 -2.570721 -2.238099
H 6.170083 -2.844007 -0.486380
H 4.225550 -1.442644 0.010522
H 3.982168 -1.235909 -1.737507
H 4.647043 0.991213 0.242410
H 1.933994 0.173046 -0.968693
H 2.223880 1.656445 -0.027446
H 2.417434 0.065025 0.739376
H 2.893358 0.515299 -2.965504
H 4.479943 0.736997 -3.733297
H 2.379170 2.836719 -3.025556
H 2.365200 2.844979 -5.480760
H 4.133600 2.687534 -5.523922
H 2.512300 5.171893 -4.942007
H 4.185016 5.045082 -5.484800
H 3.113397 5.210512 -2.658610
H 4.739809 5.634523 -3.232449
H 5.361754 3.259409 -3.363032
H 3.584105 3.300762 -0.872599
H 5.362556 3.160232 -0.911366