32
H21 C9 N1 O1
C 5.025061 -4.254690 4.404765
C 4.409610 -2.895786 4.652943
O 4.959810 -1.967245 3.758016
C 4.457945 -0.672233 3.917329
C 5.072187 0.276592 2.893319
C 4.686105 -0.115557 1.471732
N 6.524698 0.331137 2.991103
C 7.058493 0.779242 4.261568
C 8.576168 0.979726 4.222249
C 8.994437 2.083539 3.249723
C 9.105519 1.265791 5.626601
H 4.606257 -4.997466 5.099947
H 6.115621 -4.219453 4.550176
H 4.824125 -4.590738 3.375945
H 4.594568 -2.576201 5.699326
H 3.307912 -2.944466 4.528920
H 4.649623 -0.306599 4.946367
H 3.356153 -0.656986 3.785014
H 4.615634 1.267691 3.119242
H 5.069087 -1.120168 1.239511
H 5.107802 0.594175 0.742140
H 3.592718 -0.118671 1.345859
H 6.859171 0.945413 2.251913
H 6.835200 0.017884 5.027518
H 6.583789 1.724883 4.615385
H 9.015673 0.028680 3.871948
H 8.527453 3.045007 3.523959
H 8.715235 1.856513 2.208597
H 10.086538 2.225922 3.264171
H 8.684473 2.205224 6.023357
H 10.202057 1.367599 5.625598
H 8.843369 0.458252 6.328510