20
H12 C6 O2
C 0.969702 -0.104142 0.001750
C 2.491792 -0.041961 0.023134
C 3.084440 0.360690 -1.328884
O 2.625394 1.638864 -1.729123
C 4.610988 0.304045 -1.414251
C 5.415767 0.918567 -0.255945
O 5.819596 -0.372016 0.207827
C 5.295152 -0.995123 -0.967429
H 0.565891 -0.350294 0.995545
H 0.613065 -0.870563 -0.705491
H 0.544695 0.861243 -0.310845
H 2.900872 -1.017701 0.328858
H 2.819702 0.683752 0.788019
H 2.695730 -0.335863 -2.092783
H 2.905009 2.271685 -1.055292
H 4.903157 0.660533 -2.411592
H 4.857691 1.486669 0.508431
H 6.276737 1.529286 -0.581627
H 4.639004 -1.852233 -0.738222
H 6.095816 -1.339558 -1.646002