30
H20 C9 O1
C 1.111743 0.356917 -0.410428
O 2.413641 -0.036885 -0.093049
C 2.610982 -1.234466 0.676171
C 2.102248 -0.995711 2.101630
C 1.870504 -2.410352 0.040873
C 4.150254 -1.365823 0.618236
C 4.941440 -2.624986 1.057861
C 4.532027 -3.159765 2.435504
C 4.843031 -3.759162 0.024639
C 6.416420 -2.191171 1.129833
H 1.178629 1.365207 -0.845867
H 0.442732 0.417841 0.467559
H 0.631647 -0.299414 -1.159996
H 1.022195 -0.783418 2.105991
H 2.623135 -0.139314 2.556525
H 2.257352 -1.874940 2.738800
H 0.784730 -2.231003 0.027300
H 2.035347 -3.329243 0.619510
H 2.207135 -2.580091 -0.993336
H 4.538140 -0.505065 1.189058
H 4.418627 -1.166327 -0.432302
H 3.516944 -3.584971 2.427892
H 4.568235 -2.370525 3.203377
H 5.219599 -3.962349 2.749151
H 3.838525 -4.199886 -0.027001
H 5.541750 -4.571494 0.283990
H 5.107348 -3.400837 -0.983613
H 6.567990 -1.416637 1.899094
H 6.757100 -1.778419 0.166062
H 7.066940 -3.045343 1.378375