32
H20 C9 N1 O1 F1
C 2.926751 0.738592 1.227247
C 2.418115 -0.154681 0.092448
C 0.882889 -0.081110 0.063015
C 0.222201 -0.244467 -1.302546
O -1.167869 -0.023068 -1.247410
N 2.942240 -1.516785 0.274326
C 2.239211 -2.593089 -0.390143
C 4.375955 -1.620617 0.025297
C 5.089909 -2.509459 1.039624
C 6.579577 -2.655859 0.748324
C 7.279439 -3.517911 1.773543
F 8.631232 -3.624947 1.469733
H 4.020797 0.711725 1.331346
H 2.489214 0.410618 2.184199
H 2.638077 1.786540 1.053700
H 2.786664 0.266415 -0.871464
H 0.466288 -0.809746 0.781000
H 0.579994 0.911234 0.432045
H 0.449300 -1.229053 -1.748372
H 0.631195 0.512749 -1.991316
H -1.548449 -0.703574 -0.679894
H 1.189909 -2.657145 -0.071184
H 2.706417 -3.552270 -0.119704
H 2.264288 -2.521262 -1.500192
H 4.833766 -0.621295 0.058178
H 4.569357 -2.000158 -1.001167
H 4.618477 -3.507109 1.054909
H 4.940535 -2.078532 2.044307
H 7.061385 -1.663433 0.732326
H 6.727935 -3.101955 -0.249663
H 6.857130 -4.536144 1.793927
H 7.194320 -3.084935 2.783840