33
H21 C10 N1 O1
C 4.687053 2.890207 -1.885756
C 4.145272 1.721866 -1.079302
N 4.280881 1.964889 0.345828
C 3.821734 0.892345 1.216383
C 2.294806 0.798318 1.297418
C 4.487903 0.977825 2.616560
C 4.054865 2.235393 3.373855
O 4.026882 -0.216665 3.257067
C 4.110137 -0.311740 4.648576
C 6.021452 0.910351 2.581417
C 6.859196 0.517234 1.398197
C 6.926700 1.922386 1.938175
H 4.594670 2.698384 -2.965548
H 5.748940 3.069211 -1.655246
H 4.130629 3.815308 -1.662018
H 4.714124 0.808262 -1.325486
H 3.097881 1.523357 -1.389994
H 3.801978 2.831705 0.587194
H 4.192951 -0.052195 0.785484
H 1.856232 1.747991 1.644727
H 1.983214 0.000225 1.983952
H 1.871364 0.580810 0.305171
H 2.976520 2.229684 3.591446
H 4.282728 3.130608 2.777175
H 4.597177 2.334878 4.326069
H 3.850512 -1.346706 4.915956
H 3.402300 0.359079 5.168698
H 5.123665 -0.110053 5.042598
H 6.404215 0.540001 3.538344
H 6.365535 0.385841 0.432499
H 7.705694 -0.153272 1.571318
H 6.456054 2.694709 1.328046
H 7.820945 2.229365 2.488659