21
H13 C6 N1 O1
C 1.272081 0.257631 0.442140
C 2.553990 -0.446980 -0.010029
N 2.878171 -0.326647 -1.416257
C 2.009259 -1.014973 -2.363327
C 2.226399 -0.257627 -3.671623
C 2.381840 1.185735 -3.185862
O 1.134870 1.790367 -2.909384
C 3.231148 0.999444 -1.925331
H 1.112940 0.113702 1.522228
H 0.384826 -0.139780 -0.076417
H 1.318863 1.342706 0.256294
H 2.481065 -1.521144 0.232102
H 3.405460 -0.062490 0.576849
H 0.937565 -0.971510 -2.072207
H 2.265137 -2.085360 -2.444488
H 1.400815 -0.369229 -4.388447
H 3.158750 -0.587887 -4.156412
H 2.873121 1.832697 -3.926702
H 0.681448 1.260440 -2.242180
H 3.014790 1.803798 -1.202846
H 4.308223 1.064118 -2.170631