30
H17 C9 N1 O1 F2
C 1.338175 -1.159039 0.184567
C 2.598951 -0.311294 0.303009
O 2.538393 0.550112 1.420203
C 2.935984 0.448294 -1.006761
C 2.020256 1.657023 -1.166796
N 4.363024 0.803100 -1.014036
C 5.239704 -0.311624 -1.341342
C 5.301883 -0.622822 -2.846295
C 5.668697 0.617931 -3.624984
F 5.594013 0.371559 -4.971224
F 6.991917 0.921093 -3.392503
C 4.818354 1.812286 -3.262887
C 4.786888 1.990769 -1.736434
H 1.435067 -1.905849 -0.618088
H 0.450819 -0.541741 -0.033485
H 1.154078 -1.690808 1.129959
H 3.437663 -0.990982 0.517122
H 1.708592 1.039520 1.371229
H 2.706780 -0.246711 -1.841803
H 2.232560 2.420124 -0.402877
H 0.969541 1.349571 -1.059764
H 2.115015 2.123125 -2.157091
H 4.924968 -1.215620 -0.802714
H 6.257093 -0.074347 -0.987419
H 4.323040 -0.968792 -3.211400
H 6.040275 -1.410997 -3.056951
H 3.804555 1.632827 -3.651582
H 5.224532 2.705510 -3.761462
H 4.158577 2.850391 -1.475918
H 5.806235 2.241732 -1.397093