36
H23 C10 N1 O2
C 3.270209 -5.522357 -5.230583
C 3.710220 -4.135473 -4.777492
C 4.146200 -4.085253 -3.315843
C 4.556631 -2.687675 -2.856935
C 5.085544 -2.613480 -1.410833
C 4.481436 -1.442512 -0.649203
O 4.729172 -0.236082 -1.311308
C 4.138723 0.864043 -0.688595
N 6.541753 -2.525801 -1.367003
C 7.243522 -3.698850 -1.843430
C 8.742126 -3.513538 -1.698856
O 9.390376 -4.648742 -2.195757
C 10.781886 -4.573571 -2.111582
H 2.966950 -5.525012 -6.289163
H 2.413769 -5.882800 -4.637417
H 4.084618 -6.256278 -5.115058
H 2.887016 -3.416116 -4.934469
H 4.542838 -3.785693 -5.413038
H 4.977731 -4.794669 -3.160826
H 3.319959 -4.446115 -2.676802
H 3.689000 -2.015830 -2.961624
H 5.329658 -2.277590 -3.528284
H 4.730958 -3.522482 -0.873585
H 3.389844 -1.613948 -0.546430
H 4.895890 -1.413768 0.381507
H 4.383062 1.761932 -1.274358
H 4.513904 1.008624 0.344074
H 3.035634 0.770289 -0.636074
H 6.821634 -2.348910 -0.402646
H 7.023613 -3.855019 -2.911835
H 6.944666 -4.633168 -1.319054
H 9.003044 -3.349308 -0.631331
H 9.053788 -2.601611 -2.247914
H 11.200585 -5.501875 -2.526090
H 11.129960 -4.470119 -1.064722
H 11.187243 -3.718872 -2.688352