24
H13 C7 N1 O1 F2
O 1.119230 -0.769558 0.201585
C 2.475953 -0.467997 0.425184
C 2.774612 0.943356 0.916159
C 2.024117 1.381067 2.192364
C 2.112796 2.921294 2.161040
C 2.863957 3.213630 0.840678
N 2.613609 2.063221 -0.029633
C 1.333991 2.158478 -0.719516
C 1.445426 1.761892 -2.172955
F 1.661093 0.412143 -2.309361
F 0.273586 2.016978 -2.809645
H 0.930319 -0.569052 -0.721053
H 3.084398 -0.672602 -0.472314
H 2.834163 -1.151578 1.212916
H 3.853445 0.923695 1.153325
H 2.477535 0.939469 3.092029
H 0.980249 1.035157 2.146294
H 2.642908 3.337453 3.030178
H 1.110044 3.374652 2.142312
H 3.947857 3.277568 1.031238
H 2.559363 4.150661 0.354608
H 0.995906 3.205406 -0.733131
H 0.523532 1.569427 -0.255868
H 2.262091 2.278819 -2.698472