24
H15 C7 N1 O1
C 0.958237 0.011055 0.168162
C 2.467536 -0.038819 0.088473
O 3.008373 0.974252 0.895377
C 4.405660 1.011195 0.891932
C 4.871104 2.138288 1.794464
N 6.319584 2.202494 1.822264
C 6.843288 3.167818 2.744252
C 8.099764 3.905715 2.413480
C 6.787779 4.653524 2.468223
H 0.516373 -0.777145 -0.459365
H 0.581948 0.984519 -0.181880
H 0.618192 -0.139234 1.204270
H 2.801472 0.088204 -0.961837
H 2.837428 -1.030921 0.419323
H 4.791803 1.170171 -0.137635
H 4.834035 0.052245 1.248142
H 4.504347 1.945212 2.816584
H 4.395748 3.084660 1.461030
H 6.674335 2.391081 0.885795
H 6.711987 2.872655 3.792133
H 8.538987 3.730874 1.425917
H 8.831206 4.070902 3.208904
H 6.351624 4.965713 1.514036
H 6.612548 5.340593 3.300997