27
H17 C8 N1 O1
C 1.146619 0.392170 0.109228
C 2.612183 0.048838 0.158119
C 3.013316 -1.090445 -0.739875
C 3.452642 0.728053 0.955451
C 4.934266 0.543278 1.120549
N 5.292125 0.176606 2.487901
C 4.851893 -1.165624 2.812424
C 6.701867 0.383422 2.758389
C 7.043965 0.429087 4.245255
O 8.382766 0.806294 4.456247
H 0.843245 0.663569 -0.916359
H 0.894171 1.229208 0.776344
H 0.532448 -0.478286 0.396261
H 2.393499 -1.976826 -0.524147
H 4.067333 -1.379036 -0.638185
H 2.830415 -0.831742 -1.796638
H 3.030858 1.522914 1.584118
H 5.425230 1.505751 0.899694
H 5.338049 -0.186313 0.387198
H 3.779920 -1.275540 2.592853
H 4.990495 -1.381766 3.881453
H 5.397612 -1.944612 2.233015
H 7.002321 1.353304 2.331930
H 7.336575 -0.391446 2.265011
H 6.822297 -0.537340 4.734777
H 6.410168 1.188995 4.729204
H 8.944591 0.105195 4.105651