30
H18 C9 N2 O1
C 2.455426 -1.553155 1.599071
O 2.570677 -0.157896 1.649551
C 3.391649 0.459852 0.670738
C 3.083563 0.001561 -0.749153
C 4.884130 0.334671 0.995718
N 5.234139 0.937425 2.271426
C 4.952748 0.085803 3.407760
C 3.924356 0.643065 4.306641
N 3.135976 1.094784 5.021728
C 6.493170 1.688260 2.397701
C 6.796524 2.537159 1.165894
C 6.437711 2.598088 3.626545
H 1.968549 -1.872742 2.532064
H 3.430508 -2.070594 1.530452
H 1.831094 -1.896408 0.754304
H 3.143817 1.529840 0.758427
H 3.427962 -1.027166 -0.938666
H 3.586351 0.661007 -1.472068
H 2.001218 0.047407 -0.942554
H 5.417293 0.849936 0.189801
H 5.199559 -0.728175 0.939021
H 5.851600 -0.108643 4.020034
H 4.592597 -0.902753 3.088993
H 7.340815 0.980794 2.538768
H 5.935667 3.176117 0.909884
H 7.064277 1.940093 0.283243
H 7.653461 3.192117 1.381205
H 5.625843 3.335521 3.517357
H 7.388422 3.140807 3.737401
H 6.272664 2.045245 4.562793