32
H19 C9 N1 O1 F2
C 1.785811 -1.003799 -3.082949
O 2.959058 -0.579751 -2.449693
C 3.058821 -0.916010 -1.076235
C 2.303357 0.086837 -0.215637
C 4.557330 -1.000818 -0.758571
C 4.813283 -1.367936 0.699160
N 5.148387 -1.980255 -1.661143
C 6.591222 -1.913401 -1.793574
C 7.081252 -2.902434 -2.842128
C 8.596182 -2.885247 -3.002379
C 9.089042 -3.865485 -4.031447
F 8.606473 -3.547544 -5.268234
F 10.447823 -3.808548 -4.123478
H 1.845119 -0.698281 -4.137433
H 0.876992 -0.549827 -2.646130
H 1.672052 -2.104283 -3.043394
H 2.630526 -1.928004 -0.924869
H 2.781752 1.077970 -0.263054
H 2.262713 -0.234344 0.834779
H 1.265095 0.189049 -0.564591
H 4.979100 0.013909 -0.942086
H 4.315344 -2.318031 0.952784
H 4.451570 -0.587025 1.383121
H 5.889484 -1.489458 0.890276
H 4.736686 -1.809743 -2.578290
H 7.064175 -2.155930 -0.826907
H 6.944888 -0.892133 -2.059982
H 6.607890 -2.667314 -3.810508
H 6.742455 -3.914068 -2.562114
H 9.087061 -3.138615 -2.049340
H 8.950424 -1.884350 -3.300223
H 8.806140 -4.909500 -3.820990