34
H21 C10 N1 O2
C 0.859489 0.314831 0.052194
C 2.385144 0.255961 -0.024958
C 2.995227 1.617968 0.310528
C 2.921461 -0.867986 0.871057
C 4.431627 -1.075611 0.792243
N 4.900104 -2.209857 1.577508
C 4.618597 -3.480379 0.941216
C 6.285981 -2.048796 1.964130
C 6.831317 -3.049403 2.968526
O 5.941782 -3.292624 4.011101
C 6.365114 -4.513192 4.574542
C 6.832212 -5.308781 3.350437
O 7.113183 -4.308851 2.389207
H 0.452557 1.080927 -0.626902
H 0.527973 0.564527 1.074497
H 0.404594 -0.651213 -0.219208
H 2.660351 0.010258 -1.067526
H 2.808450 1.881308 1.365896
H 2.554708 2.411290 -0.314223
H 4.083464 1.639737 0.146688
H 2.403466 -1.801606 0.596222
H 2.651312 -0.662776 1.922722
H 4.932659 -0.174579 1.177071
H 4.740959 -1.166244 -0.275208
H 3.569937 -3.514794 0.614028
H 4.771616 -4.311072 1.641421
H 5.256926 -3.664514 0.048456
H 6.399339 -1.054366 2.422677
H 6.982505 -2.075144 1.094538
H 7.784325 -2.636965 3.371825
H 5.525362 -4.976596 5.108583
H 7.196951 -4.349387 5.285276
H 6.042144 -5.976985 2.967476
H 7.729133 -5.912564 3.562043