18
H11 C5 N1 O1
C 1.705197 -0.393130 -2.044463
N 1.856046 1.017303 -1.743498
C 2.951283 1.289842 -0.847212
C 3.250726 2.755725 -0.484128
C 4.756713 2.420943 -0.536717
C 4.386910 1.200470 -1.404169
O 5.112979 0.014351 -1.310435
H 0.846179 -0.547589 -2.714721
H 1.558506 -1.031895 -1.147308
H 2.603706 -0.765270 -2.561320
H 0.993809 1.370088 -1.330410
H 2.911642 0.680259 0.085702
H 2.838674 3.142047 0.458452
H 2.952883 3.419827 -1.309827
H 5.131270 2.097547 0.448143
H 5.448220 3.165018 -0.957219
H 4.367433 1.480664 -2.469931
H 5.109904 -0.261760 -0.385639