31
H19 C10 N1 O1
C 4.104344 -5.402023 -0.800034
C 3.611403 -4.555242 0.111123
C 4.344627 -4.181661 1.366894
C 2.252693 -3.912867 -0.068318
N 2.301155 -2.471010 0.096042
C 2.980650 -1.796983 -0.999203
C 3.801729 -0.576745 -0.574433
C 4.298727 0.196897 -1.788923
O 4.875860 -0.934150 0.274952
C 1.072232 -1.810389 0.448212
C -0.286202 -2.190675 -0.097754
C 0.039215 -2.374550 1.370281
H 5.069407 -5.898928 -0.657130
H 3.553677 -5.633403 -1.717919
H 5.292076 -4.730642 1.468048
H 3.722386 -4.385247 2.254807
H 4.548040 -3.099659 1.364306
H 1.593017 -4.330583 0.708485
H 1.824630 -4.216965 -1.046594
H 2.264521 -1.495395 -1.792394
H 3.678203 -2.508705 -1.472177
H 3.168598 0.090137 0.033136
H 4.906650 -0.451928 -2.442467
H 4.923537 1.044101 -1.470077
H 3.460892 0.588763 -2.385363
H 5.456429 -1.524743 -0.222105
H 1.229988 -0.733840 0.562865
H -0.354609 -3.100955 -0.700630
H -0.981355 -1.398487 -0.389736
H 0.144869 -3.397810 1.740107
H -0.412247 -1.689822 2.093390