32
H21 C9 N1 O1
C 0.890062 0.162210 -0.040304
C 2.413566 0.182319 -0.003357
C 3.008218 -0.820064 0.982799
C 4.533668 -0.806692 1.027058
C 5.121124 -1.807230 2.017092
C 6.642967 -1.797308 2.059413
N 7.150987 -2.733920 3.045923
C 8.595848 -2.800693 3.107407
C 9.099740 -3.643422 4.280386
C 8.638347 -5.093259 4.218177
O 10.507929 -3.555239 4.366506
H 0.492975 0.895251 -0.759688
H 0.464089 0.400467 0.948133
H 0.511270 -0.830904 -0.332725
H 2.762945 1.196899 0.257356
H 2.810037 -0.024653 -1.013032
H 2.660018 -1.836366 0.723000
H 2.612897 -0.613954 1.994077
H 4.881390 0.209645 1.285849
H 4.928855 -1.015263 0.016518
H 4.775380 -2.824643 1.757584
H 4.739981 -1.600974 3.032201
H 6.995884 -0.785047 2.326299
H 7.039422 -1.999480 1.039223
H 6.778533 -3.658383 2.833210
H 8.991277 -1.779729 3.238044
H 9.054143 -3.195267 2.170119
H 8.715489 -3.188709 5.208571
H 8.961948 -5.564374 3.273932
H 7.542478 -5.173574 4.284478
H 9.070533 -5.662893 5.054431
H 10.873160 -3.984778 3.582752