34
H21 C11 N1 O1
C 1.546672 0.659711 0.288231
C 2.366334 -0.084439 -0.453422
C 2.953764 -1.392197 -0.020846
O 4.337264 -1.377363 -0.252373
C 4.969069 -2.595313 0.036588
C 6.451981 -2.436532 -0.294124
N 7.301220 -3.568545 -0.003244
C 7.553048 -3.863720 1.394965
C 8.433946 -5.126471 1.347471
C 9.920916 -4.794115 1.433049
C 8.053727 -5.773107 -0.009247
C 6.988061 -4.852362 -0.622656
C 6.997780 -4.808326 -2.140691
H 1.118909 1.591388 -0.093733
H 1.265892 0.362713 1.304985
H 2.636368 0.237227 -1.466886
H 2.480921 -2.213970 -0.600232
H 2.728841 -1.585030 1.047510
H 4.518995 -3.413069 -0.561897
H 4.829499 -2.863284 1.103100
H 6.833008 -1.565968 0.264737
H 6.534308 -2.179608 -1.363488
H 6.617992 -4.074201 1.958274
H 8.049175 -3.013250 1.890829
H 8.169674 -5.794069 2.181600
H 10.193377 -4.067747 0.649570
H 10.541413 -5.693431 1.290335
H 10.181567 -4.356340 2.409899
H 7.683427 -6.803212 0.096805
H 8.933937 -5.809609 -0.672226
H 5.987565 -5.212480 -0.290233
H 7.952692 -4.395385 -2.504468
H 6.179138 -4.190217 -2.540799
H 6.877951 -5.822159 -2.552501