20
H12 C6 N2
C 0.916519 0.050712 0.099033
C 2.440231 0.031319 0.084545
C 3.021893 -0.355920 -1.272131
C 4.543343 -0.371205 -1.290476
N 5.046678 -0.792078 -2.589342
C 6.492050 -0.787952 -2.661352
C 6.959492 -1.414479 -3.904833
N 7.320563 -1.896336 -4.891194
H 0.526923 0.330302 1.090105
H 0.503022 -0.938665 -0.155847
H 0.519786 0.773901 -0.632071
H 2.807482 -0.673924 0.850397
H 2.824340 1.024535 0.375662
H 2.658615 0.349766 -2.041344
H 2.654885 -1.353866 -1.568070
H 4.914574 -1.081619 -0.531113
H 4.927201 0.628675 -0.993985
H 4.674017 -0.174714 -3.310336
H 6.905127 -1.380270 -1.828514
H 6.960767 0.214898 -2.596283