32
H19 C9 N1 O1 F2
C 1.614357 0.290020 1.642675
C 3.021076 0.619896 1.159971
C 3.035564 1.175531 -0.259668
N 4.374166 1.480671 -0.744225
C 4.547435 1.351935 -2.171775
C 4.900196 -0.058456 -2.591778
F 3.883847 -0.929809 -2.328575
F 5.094454 -0.092149 -3.939323
C 4.987603 2.645509 -0.128571
C 6.217529 2.322386 0.721997
C 7.352728 1.715180 -0.090176
O 6.582929 3.540920 1.333574
C 7.475521 3.433347 2.402743
H 1.626894 -0.116205 2.665525
H 1.133505 -0.458167 0.991595
H 0.972718 1.186228 1.648285
H 3.656364 -0.281794 1.183761
H 3.484988 1.346337 1.848564
H 2.379812 2.073288 -0.310831
H 2.589333 0.426926 -0.929202
H 5.386624 1.979987 -2.503193
H 3.656545 1.665945 -2.753813
H 5.805061 -0.444026 -2.097295
H 4.261018 3.153751 0.527121
H 5.283809 3.387869 -0.891564
H 5.911220 1.596495 1.503591
H 7.696999 2.424964 -0.859878
H 7.010132 0.796043 -0.586236
H 8.210438 1.446680 0.544335
H 7.560429 4.425291 2.870204
H 8.488517 3.117704 2.090260
H 7.117316 2.718120 3.169112