23
H15 C6 N1 O1
C 4.379091 2.898784 -1.175049
C 3.936846 2.207041 0.104403
N 4.520815 0.876745 0.189318
C 4.207989 0.092874 1.381611
C 2.729710 -0.271948 1.460754
C 4.673321 0.744998 2.684494
O 6.027333 1.082610 2.560668
C 6.541981 1.748030 3.675044
H 3.915308 3.892485 -1.268671
H 4.102214 2.300286 -2.057058
H 5.472935 3.036703 -1.190253
H 2.838116 2.116800 0.105822
H 4.195702 2.853106 0.969235
H 5.534321 0.978178 0.152114
H 4.781406 -0.844855 1.278685
H 2.098826 0.605038 1.675604
H 2.553809 -1.009416 2.258456
H 2.395211 -0.708013 0.507487
H 4.516641 0.043404 3.529369
H 4.067456 1.648409 2.905330
H 7.599465 1.976948 3.479412
H 6.482306 1.130049 4.592493
H 6.008657 2.698932 3.871885