29
H19 C8 N1 O1
C 7.545566 10.808921 -1.333753
C 6.825854 9.500970 -1.027200
C 7.315720 8.331922 -1.876628
C 6.603427 7.020393 -1.575328
N 7.083180 5.948291 -2.425138
C 6.466712 4.665582 -2.164303
C 7.118140 3.574279 -2.999687
C 6.451499 2.220162 -2.801031
O 8.485814 3.550099 -2.632441
C 9.346228 2.981840 -3.576967
H 7.170543 11.632650 -0.706684
H 7.408139 11.101865 -2.387451
H 8.629403 10.719216 -1.153919
H 5.740648 9.632263 -1.182795
H 6.952156 9.252821 0.041204
H 8.401277 8.194151 -1.718887
H 7.187049 8.565292 -2.947954
H 5.518839 7.145295 -1.747251
H 6.712913 6.784345 -0.492506
H 8.088153 5.836728 -2.293633
H 5.394010 4.713275 -2.418127
H 6.525666 4.367909 -1.092863
H 7.040740 3.870795 -4.065338
H 6.512826 1.911753 -1.745436
H 6.928772 1.442766 -3.415786
H 5.390636 2.267297 -3.090053
H 10.373505 3.080516 -3.197453
H 9.284304 3.499110 -4.554098
H 9.146721 1.907423 -3.746665