26
H17 C8 N1
C 0.970300 -0.284126 0.165539
C 2.478423 -0.071387 0.178369
C 2.905174 1.228115 -0.495066
N 4.348404 1.386032 -0.458931
C 4.891252 2.673759 -0.859651
C 4.364897 3.337645 -2.145461
C 4.947348 4.746038 -2.051720
C 4.788553 5.120796 -0.562385
C 4.728753 3.780089 0.204915
H 0.693900 -1.228137 0.659707
H 0.578963 -0.320692 -0.864271
H 0.447285 0.532205 0.690116
H 2.976390 -0.916464 -0.329719
H 2.856573 -0.068884 1.214442
H 2.439149 2.075671 0.036399
H 2.489248 1.250914 -1.525020
H 4.774507 0.651719 -1.020094
H 5.973125 2.512179 -1.007289
H 3.262514 3.385226 -2.122472
H 4.659032 2.793966 -3.057203
H 4.461854 5.466808 -2.726667
H 6.016111 4.718168 -2.322657
H 3.857308 5.688971 -0.413048
H 5.609711 5.766376 -0.216945
H 3.757154 3.665267 0.710458
H 5.501322 3.694787 0.983653