15
H10 C4 O1
C 0.957382 0.054726 -0.054205
C 2.483362 0.101700 -0.065416
C 3.008210 1.402729 -0.666823
C 3.032311 -0.121362 1.345276
O 4.437731 -0.124848 1.414701
H 0.549327 0.173969 -1.069933
H 0.543274 0.865859 0.568469
H 0.583258 -0.900720 0.347321
H 2.846703 -0.737694 -0.688976
H 2.639023 2.272959 -0.097322
H 2.681540 1.521613 -1.711945
H 4.107582 1.429950 -0.644882
H 2.609419 -1.059676 1.756441
H 2.690286 0.696613 2.002949
H 4.756061 -0.847486 0.860675