36
H23 C10 N1 O2
C 1.057740 -0.423937 1.018538
C 2.342437 -0.053695 0.286087
C 3.122859 1.054975 0.986834
C 4.494761 1.376885 0.385007
C 4.402967 1.786508 -1.083527
N 5.126877 2.437510 1.181380
C 6.521467 2.257150 1.553306
C 7.474910 2.320875 0.368366
O 7.436806 1.124842 -0.362344
C 8.238069 1.154405 -1.505369
C 6.877058 3.352107 2.554850
O 8.152241 3.121375 3.078768
C 8.578192 4.118079 3.960625
H 0.507805 -1.218628 0.490936
H 0.385402 0.445207 1.106415
H 1.268308 -0.783792 2.038919
H 2.095652 0.254210 -0.743256
H 2.985987 -0.946298 0.193371
H 3.273792 0.770051 2.043850
H 2.516974 1.980718 0.999175
H 5.110076 0.458859 0.440653
H 3.725718 2.648950 -1.201338
H 4.029791 0.963797 -1.713155
H 5.392783 2.069622 -1.466473
H 4.592268 2.562628 2.038151
H 6.701610 1.280074 2.052689
H 8.499246 2.500317 0.747209
H 7.196898 3.184424 -0.271244
H 8.161472 0.176804 -2.002440
H 9.301868 1.341544 -1.259105
H 7.913576 1.936960 -2.219447
H 6.120386 3.360400 3.366443
H 6.823608 4.342279 2.056226
H 9.581959 3.849422 4.319159
H 7.906242 4.210156 4.836172
H 8.633953 5.109014 3.469277