39
H25 C12 N1 O1
C 4.827861 1.310280 0.529191
C 4.417095 0.001809 1.196975
C 4.931382 -1.199433 0.406011
C 2.906632 -0.111120 1.440664
C 2.501342 -1.215952 2.447425
C 1.420769 -2.202357 2.002532
C 0.934203 -3.042431 3.182831
C 1.902764 -3.094072 0.860323
C 2.020376 -0.072535 3.360536
N 2.363049 0.936878 2.340515
C 1.231456 1.741421 1.926408
C 1.515458 2.906023 0.970123
C 1.622596 2.500077 -0.492179
O 0.514285 3.897699 1.125211
H 5.924405 1.416367 0.526147
H 4.407441 2.176711 1.060790
H 4.492655 1.350206 -0.519939
H 4.885007 -0.018960 2.198576
H 4.474741 -1.233602 -0.597615
H 4.706841 -2.151830 0.909450
H 6.023155 -1.142928 0.271538
H 2.367720 -0.177511 0.475926
H 3.364603 -1.775216 2.846280
H 0.567280 -1.604685 1.631733
H 1.752636 -3.666029 3.580801
H 0.116097 -3.716279 2.882861
H 0.561993 -2.413304 4.006786
H 2.754544 -3.717369 1.180667
H 2.227389 -2.503926 -0.010356
H 1.101799 -3.771698 0.524247
H 2.568130 0.054172 4.309489
H 0.941134 -0.115514 3.592167
H 0.822943 2.202551 2.839523
H 0.411817 1.119998 1.493147
H 2.453974 3.383971 1.294931
H 0.673167 2.049674 -0.829405
H 2.418006 1.764174 -0.662115
H 1.828093 3.381269 -1.118482
H -0.310178 3.531021 0.781879