25
H13 C8 N1 O1 F2
F 1.743692 0.858519 -0.741090
C 3.013823 0.378823 -0.842340
F 3.757768 1.044173 0.084631
C 3.018191 -1.106785 -0.555837
N 4.344155 -1.671214 -0.725648
C 4.832090 -2.444842 0.378702
C 6.246297 -2.223947 0.842317
C 5.096434 -1.721283 1.666878
C 4.564609 -2.197372 -2.048812
C 5.942607 -2.733459 -2.466583
O 5.349283 -3.892686 -3.056883
C 4.079233 -3.606131 -2.467849
H 3.405324 0.639801 -1.838231
H 2.263159 -1.580149 -1.209335
H 2.674515 -1.237917 0.480593
H 4.446549 -3.471194 0.475484
H 6.826996 -1.479152 0.292130
H 6.813949 -3.088111 1.197048
H 4.909149 -0.644867 1.667418
H 4.853869 -2.235509 2.600023
H 4.213758 -1.449207 -2.774271
H 6.608006 -2.995570 -1.627845
H 6.507421 -2.126974 -3.193723
H 3.848078 -4.278807 -1.621614
H 3.253817 -3.656541 -3.197051