36
H23 C11 N1 O1
C 1.210608 0.238629 0.439291
C 2.269878 -0.026897 -0.333244
C 2.856583 0.972606 -1.289341
C 2.957830 -1.374403 -0.293688
N 4.324105 -1.279889 0.195438
C 4.412515 -0.927563 1.605306
C 4.948228 0.483421 1.832754
O 5.088303 0.789909 3.198026
C 5.181189 -2.384555 -0.201187
C 6.666508 -2.045808 -0.136398
C 7.558069 -3.200989 -0.581619
C 9.048952 -2.876535 -0.525771
C 9.935380 -4.032495 -0.973479
H 0.708266 1.211087 0.409733
H 0.804007 -0.513275 1.123750
H 2.396296 1.965649 -1.186159
H 2.720895 0.632264 -2.330134
H 3.941887 1.062704 -1.126972
H 2.995127 -1.769303 -1.322734
H 2.348020 -2.084889 0.304780
H 5.066286 -1.635110 2.144457
H 3.417987 -1.006559 2.085048
H 4.295476 1.211882 1.314475
H 5.948330 0.568305 1.378855
H 4.207065 0.795240 3.589976
H 4.930293 -2.651196 -1.240572
H 4.986617 -3.295685 0.409464
H 6.941382 -1.754574 0.892240
H 6.851291 -1.160805 -0.769968
H 7.288634 -3.496275 -1.611986
H 7.355263 -4.084818 0.050115
H 9.316534 -2.583298 0.504598
H 9.250209 -1.991630 -1.154741
H 9.781181 -4.921732 -0.340449
H 11.002821 -3.767269 -0.921218
H 9.714836 -4.324600 -2.013315