26
H15 C7 N1 O1 F2
C 1.617356 1.999964 1.331449
O 1.879550 2.165810 -0.034568
C 2.790742 1.257114 -0.632199
C 2.366239 -0.197381 -0.451297
C 4.249251 1.458665 -0.203534
N 4.832027 2.724252 -0.623878
C 4.441032 3.847431 0.210353
C 6.259743 2.675581 -0.859623
C 6.657753 3.450166 -2.096295
F 6.456941 4.789679 -1.938191
F 7.990577 3.287967 -2.324148
H 0.977293 2.838296 1.642472
H 2.530409 2.022588 1.954119
H 1.076051 1.061694 1.550593
H 2.742353 1.507886 -1.704039
H 2.547730 -0.559062 0.573129
H 2.930677 -0.844397 -1.138928
H 1.295049 -0.311856 -0.675854
H 4.816955 0.645911 -0.679079
H 4.348025 1.302733 0.893337
H 3.348578 3.942236 0.221149
H 4.862346 4.779917 -0.186933
H 4.794075 3.733653 1.259188
H 6.577132 1.639378 -1.044712
H 6.860860 3.052982 -0.006667
H 6.103454 3.129461 -2.992204