27
H16 C8 N1 O1 F1
C 0.961291 -0.126286 0.030752
O 2.354903 -0.105733 0.110921
C 2.832110 0.309224 1.358081
C 4.348305 0.291748 1.337761
N 4.873365 0.718573 2.621975
C 6.315949 0.824755 2.690464
C 6.820317 0.994953 4.123580
C 8.241448 1.577274 3.989101
C 8.307423 2.193355 2.573364
C 6.892916 2.067201 2.018166
F 6.906392 1.972668 0.628837
H 0.681034 -0.461037 -0.978335
H 0.520473 0.875713 0.201751
H 0.513262 -0.822659 0.767052
H 2.457839 -0.359075 2.163111
H 2.478446 1.331678 1.602711
H 4.698180 0.982184 0.556293
H 4.692449 -0.722204 1.042600
H 4.562174 0.064194 3.338710
H 6.825086 -0.050163 2.226159
H 6.788031 0.052982 4.690222
H 6.152793 1.709045 4.633711
H 9.000178 0.789157 4.099992
H 8.440475 2.321631 4.772848
H 8.973997 1.610583 1.919062
H 8.663116 3.232818 2.564267
H 6.263339 2.936449 2.273156