31
H19 C10 N1 O1
C 1.164185 0.932510 -0.029890
C -0.073988 1.807898 -0.230896
C -1.149793 1.033467 0.526958
C -0.881289 -0.447059 0.187479
C -1.345161 -1.372066 1.324605
N -1.460277 -2.793383 1.087843
C -0.290458 -3.647641 1.100536
C 0.191718 -4.022156 -0.298943
O -0.863610 -4.551995 -1.071635
C -1.924574 -3.631444 -1.195389
C -2.483549 -3.262500 0.176210
C 0.634317 -0.508434 -0.155864
H 1.562994 1.100497 0.984655
H 1.977524 1.153569 -0.737779
H -0.331397 1.858833 -1.303221
H 0.057743 2.840494 0.127707
H -2.177091 1.342507 0.279336
H -1.015411 1.193177 1.612533
H -1.463738 -0.702243 -0.713189
H -2.339226 -1.015013 1.652283
H -0.670566 -1.223741 2.187644
H -0.536568 -4.590917 1.628949
H 0.521784 -3.161887 1.661938
H 0.972640 -4.795806 -0.242821
H 0.621294 -3.138100 -0.807705
H -2.698867 -4.109688 -1.814563
H -1.576442 -2.720647 -1.723650
H -2.963298 -4.169421 0.596033
H -3.268047 -2.497500 0.069731
H 0.781044 -0.880969 -1.181406
H 1.178666 -1.196561 0.508859