33
H21 C10 N1 O1
C 0.373969 0.073557 0.940232
C 1.874225 -0.082726 0.719225
C 2.553619 1.241219 0.371415
C 4.093798 1.261888 0.322478
C 4.766555 0.927911 1.663026
C 5.201687 -0.542098 1.580894
O 4.445657 -1.318504 2.487622
C 4.974430 -0.932631 0.106705
N 4.745906 0.319913 -0.593057
C 4.261734 0.247286 -1.964711
C 4.311215 1.623569 -2.627253
C 5.083899 -0.747749 -2.782715
H -0.105443 -0.892996 1.161513
H -0.120924 0.494471 0.049207
H 0.163642 0.750745 1.784535
H 2.046296 -0.805716 -0.095554
H 2.344590 -0.523237 1.612546
H 2.252687 2.005116 1.111231
H 2.159122 1.598768 -0.595715
H 4.371137 2.286653 0.024338
H 4.100878 1.079425 2.524874
H 5.646232 1.570760 1.807206
H 6.273430 -0.632288 1.831171
H 4.701658 -2.241743 2.376421
H 4.112773 -1.631471 0.058921
H 5.844567 -1.464191 -0.308849
H 3.204989 -0.104673 -1.988696
H 5.341100 2.016465 -2.609954
H 3.659041 2.355865 -2.130025
H 3.985286 1.553061 -3.675992
H 6.154188 -0.484777 -2.749725
H 4.757976 -0.729919 -3.833497
H 4.971313 -1.780505 -2.422137