34
H21 C11 N1 O1
C 2.755608 -0.693834 -1.040460
O 2.604554 -0.975900 0.318853
C 2.799470 0.123927 1.183087
C 2.263542 -0.274695 2.565517
N 0.932631 -0.822805 2.590598
C -0.146977 -0.060955 1.998047
C -1.307143 -1.049145 2.023322
C -0.624998 -2.379336 1.658763
C -0.496736 -2.561000 0.146936
C 0.748646 -2.253430 2.347918
C 4.249664 0.592120 1.178140
C 5.050634 0.863875 2.425920
C 5.348470 -0.347743 1.590771
H 2.450930 -1.586469 -1.605948
H 3.800833 -0.456868 -1.314350
H 2.117729 0.154638 -1.358138
H 2.182495 0.968319 0.813137
H 2.299325 0.629896 3.197870
H 2.942304 -1.008545 3.031303
H 0.058018 0.256287 0.952730
H -0.350971 0.858112 2.575718
H -2.119055 -0.779458 1.331103
H -1.729298 -1.102068 3.039827
H -1.188024 -3.231850 2.069676
H 0.078608 -1.736790 -0.301928
H -1.487221 -2.596234 -0.334509
H 0.029718 -3.497848 -0.095591
H 1.543466 -2.668957 1.708087
H 0.768052 -2.812497 3.303710
H 4.494516 1.242666 0.332661
H 4.582940 0.708899 3.400838
H 5.753983 1.700208 2.396101
H 5.049486 -1.322414 1.987923
H 6.264413 -0.364095 0.994219