38
H25 C11 N1 O1
C 0.843151 -0.444553 -0.568798
C 2.365409 -0.378213 -0.565236
C 3.002279 -1.396422 0.379619
C 4.538375 -1.331216 0.459435
C 5.035760 -0.493510 1.644591
C 4.555113 0.954323 1.687163
C 5.185054 1.745514 2.828054
N 5.065196 -2.692921 0.559521
C 6.489017 -2.833945 0.325888
C 6.885044 -4.298131 0.361673
O 8.267055 -4.398782 0.176916
C 8.744731 -5.718434 0.189552
C 10.243781 -5.708988 -0.009532
H 0.409233 0.281512 -1.273714
H 0.432782 -0.225837 0.430678
H 0.487508 -1.446669 -0.859964
H 2.686680 0.640855 -0.297264
H 2.745911 -0.555505 -1.586336
H 2.707123 -2.404549 0.039837
H 2.573360 -1.288477 1.392017
H 4.907700 -0.843655 -0.472409
H 6.138670 -0.486329 1.639816
H 4.735156 -1.013283 2.572480
H 3.457840 0.983929 1.791974
H 4.786307 1.446869 0.726382
H 4.952453 1.288996 3.804087
H 4.818839 2.783712 2.849583
H 6.282680 1.779862 2.732583
H 4.576268 -3.267146 -0.125672
H 7.056683 -2.312736 1.112524
H 6.815914 -2.396873 -0.642758
H 6.341742 -4.857893 -0.429473
H 6.576786 -4.737622 1.332217
H 8.254534 -6.311350 -0.609753
H 8.487361 -6.210168 1.150029
H 10.505398 -5.242817 -0.971826
H 10.636212 -6.736724 -0.004204
H 10.739704 -5.144294 0.794771