13
H7 C3 N1 O2
C 1.052653 -0.068496 -0.108375
N 2.490580 -0.062255 -0.243584
C 3.163179 0.759689 -1.062908
O 2.644004 1.602687 -1.788119
C 4.683783 0.618047 -1.075390
O 5.227241 1.532751 -1.968298
H 0.754429 0.130078 0.932281
H 0.630002 -1.037594 -0.415413
H 0.637075 0.716854 -0.751093
H 3.025127 -0.725860 0.307466
H 4.934853 -0.424119 -1.350452
H 5.057063 0.776818 -0.045680
H 4.450599 2.000460 -2.324027