35
H22 C10 N1 O1 F1
C 0.856322 0.419201 -0.124559
C 2.182766 -0.331889 -0.096748
C 2.724725 -0.620830 1.323248
C 2.388444 -2.051682 1.764799
C 0.911133 -2.418140 1.670860
N 4.173743 -0.341789 1.366487
C 4.460581 1.075512 1.163861
C 5.418293 1.305370 0.007778
F 5.648047 2.667284 -0.134426
C 4.897051 -0.889363 2.501379
C 6.407819 -0.826904 2.339771
O 6.978335 -1.535545 3.403689
C 8.374624 -1.530779 3.385944
H 0.510336 0.573177 -1.158622
H 0.960136 1.411978 0.343392
H 0.061411 -0.116013 0.415575
H 2.921577 0.254890 -0.659697
H 2.094372 -1.283586 -0.647930
H 2.203564 0.063614 2.032178
H 2.697935 -2.197463 2.809970
H 2.985288 -2.754446 1.156133
H 0.286872 -1.725008 2.257696
H 0.747387 -3.429716 2.072665
H 0.538961 -2.414346 0.635352
H 4.884078 1.534910 2.076734
H 3.535733 1.633754 0.949660
H 4.992427 0.926832 -0.934903
H 6.388632 0.813669 0.173903
H 4.658923 -1.953561 2.612648
H 4.621958 -0.391953 3.458609
H 6.778937 0.217690 2.337519
H 6.689174 -1.276960 1.365037
H 8.729471 -2.113578 4.248033
H 8.787405 -0.505513 3.462929
H 8.779498 -1.989937 2.462631