15
H8 C4 O3
C 1.229424 -0.174139 0.071560
O 2.484274 0.274292 -0.377701
C 2.672339 0.140145 -1.745026
O 3.861497 0.761999 -2.072721
C 4.864807 -0.228566 -2.261371
C 4.144657 -1.533539 -1.926114
O 2.784852 -1.189126 -2.135206
H 1.164371 0.044208 1.145741
H 1.102045 -1.259706 -0.079018
H 0.402537 0.348640 -0.444727
H 1.825401 0.588683 -2.298341
H 5.722442 -0.035950 -1.600455
H 5.207881 -0.200035 -3.308254
H 4.315118 -1.836697 -0.879530
H 4.408656 -2.365671 -2.590747