20
H13 C6 N1
C -2.380838 0.010623 -0.066255
N -0.970084 0.004736 0.242388
C -0.303756 1.205431 -0.236434
C 1.156659 1.246806 0.199690
C 1.896453 -0.009700 -0.254252
C 1.145024 -1.257175 0.205427
C -0.314949 -1.204265 -0.230926
H -2.861664 0.904452 0.361379
H -2.869977 -0.876759 0.365354
H -2.586284 0.009150 -1.161104
H -0.841228 2.084299 0.154755
H -0.355315 1.270383 -1.350136
H 1.196379 1.321197 1.300137
H 1.634824 2.152736 -0.205095
H 2.929885 -0.013644 0.127187
H 1.963563 -0.012544 -1.357115
H 1.184046 -1.326879 1.306208
H 1.614745 -2.169362 -0.195174
H -0.860549 -2.076295 0.164285
H -0.367145 -1.273842 -1.344319