35
H23 C10 N1 O1
C 4.391387 2.950009 -1.489293
C 4.056368 1.675775 -0.722635
C 4.606020 1.680010 0.701354
C 4.429294 0.360631 1.463317
C 2.964430 -0.084742 1.573689
C 2.035420 0.914199 2.255948
N 4.999195 0.466609 2.807332
C 6.445454 0.396095 2.874357
C 6.977130 0.768881 4.255009
C 6.471444 -0.152233 5.358757
O 8.385149 0.740120 4.146636
C 9.074428 1.442354 5.138193
H 3.975890 2.929497 -2.508823
H 5.481391 3.090159 -1.575185
H 3.983192 3.838634 -0.980460
H 4.457661 0.801767 -1.265781
H 2.961424 1.544681 -0.701621
H 4.138607 2.493207 1.283265
H 5.681408 1.921262 0.657946
H 4.957361 -0.427920 0.881774
H 2.585542 -0.317461 0.565889
H 2.945401 -1.040977 2.125862
H 1.923900 1.837012 1.665197
H 2.415168 1.198613 3.249189
H 1.029938 0.485939 2.388565
H 4.610090 -0.285086 3.373194
H 6.881636 1.109013 2.158992
H 6.844500 -0.605764 2.602094
H 6.645293 1.804243 4.475733
H 6.747512 -1.197343 5.143878
H 5.376470 -0.087493 5.448448
H 6.891843 0.124077 6.337116
H 10.144333 1.417179 4.884919
H 8.953694 1.000602 6.145136
H 8.754937 2.501704 5.191678