33
H21 C9 N1 O2
C 3.480296 5.329030 2.319976
C 3.242849 4.102140 1.447895
C 1.824355 3.540653 1.564424
N 0.826974 4.470140 1.046417
C 0.823210 4.855302 -0.363619
C 1.104635 6.348654 -0.534019
C -0.505348 4.506609 -1.023327
O -0.733132 3.118202 -0.961418
C -1.946757 2.711763 -1.538471
C 1.705543 2.072761 1.065236
C 2.276901 1.759236 -0.317127
O 0.365678 1.644785 1.160023
H 4.483627 5.752030 2.156550
H 3.393289 5.076429 3.389303
H 2.739425 6.113647 2.105481
H 3.956888 3.308427 1.725982
H 3.460151 4.344449 0.393575
H 1.595737 3.469114 2.643160
H -0.098383 4.178912 1.346242
H 1.609021 4.305081 -0.905611
H 0.348978 6.947055 0.000356
H 1.099487 6.646378 -1.594934
H 2.090348 6.599171 -0.115837
H -0.499535 4.840465 -2.077642
H -1.328082 5.048230 -0.511454
H -2.022717 1.621602 -1.425442
H -1.985149 2.961338 -2.614416
H -2.813012 3.183852 -1.039214
H 2.271951 1.468977 1.796894
H 1.676934 2.224120 -1.112237
H 2.251570 0.670502 -0.480735
H 3.320234 2.092616 -0.421406
H -0.115804 2.121918 0.461285