27
H15 C8 N1 O1 F2
C 2.249456 1.234088 -1.301512
C 2.050050 0.187113 -0.216217
O 0.682747 0.088140 0.138721
C 2.862650 0.425066 1.076977
N 4.308894 0.328182 1.086570
C 5.093005 1.341278 0.386589
C 5.765928 0.644685 -0.829238
C 5.378425 -0.836534 -0.692284
C 4.969417 -0.934025 0.785992
C 4.184190 -2.175035 1.140283
F 3.944350 -2.219727 2.480091
F 4.939468 -3.267507 0.842257
H 3.273221 1.227989 -1.699236
H 2.037807 2.244799 -0.912971
H 1.561522 1.036444 -2.137516
H 2.309665 -0.800034 -0.630933
H 0.405597 0.953918 0.464737
H 2.459502 -0.279141 1.821847
H 2.598700 1.431853 1.448583
H 5.874781 1.737502 1.058890
H 4.457857 2.190276 0.099709
H 6.857901 0.768243 -0.783769
H 5.433696 1.065835 -1.789039
H 6.195432 -1.523562 -0.952573
H 4.513408 -1.081432 -1.330019
H 5.891030 -0.998576 1.398122
H 3.221111 -2.280988 0.618828