34
H21 C10 N1 O2
C 5.385063 0.343845 -3.199396
O 4.834527 1.218169 -2.260195
C 5.113804 0.855041 -0.939631
C 4.470375 1.836633 0.028969
C 2.956658 1.885512 -0.108971
N 2.393005 2.760820 0.900039
C 0.980789 3.090742 0.720815
C 0.098547 1.897445 1.074285
C 0.691183 4.353056 1.520993
C -0.630517 4.655974 2.167882
C 0.569146 4.338907 3.019676
O 4.930553 3.160887 -0.127757
C 6.269960 3.383757 0.206083
H 5.120290 0.707891 -4.202408
H 4.994503 -0.686762 -3.086510
H 6.489457 0.297004 -3.124386
H 6.208544 0.815907 -0.767927
H 4.727007 -0.159685 -0.711789
H 4.715465 1.482458 1.052135
H 2.710737 2.205380 -1.143244
H 2.570032 0.860197 0.009355
H 2.935159 3.623391 0.874404
H 0.776718 3.338302 -0.345525
H 0.215570 1.610620 2.131419
H 0.367432 1.024239 0.461698
H -0.962352 2.112316 0.880064
H 1.215078 5.225648 1.113201
H -1.423543 3.905745 2.112830
H -0.987495 5.688905 2.136243
H 0.587903 3.369671 3.526307
H 1.040193 5.149800 3.581785
H 6.428071 4.471239 0.244415
H 6.970037 2.964424 -0.539753
H 6.525259 2.959332 1.196276