39
H25 C12 N1 O1
C 0.830469 -0.001416 0.007643
C 2.351094 -0.114434 0.000664
C 2.916369 -1.324677 0.757555
C 2.451201 -2.650437 0.153534
C 4.443950 -1.226499 0.816838
N 5.038440 -2.245157 1.664340
C 6.494663 -2.236761 1.718949
C 7.031657 -0.984954 2.403194
C 6.931884 -3.495046 2.460961
O 8.326600 -3.593873 2.441521
C 8.829573 -4.698730 3.138586
C 10.336221 -4.730678 3.052628
C 11.045086 -4.278601 1.808453
C 11.137791 -3.461272 3.071796
H 0.504891 0.936255 -0.468907
H 0.436248 -0.005985 1.037238
H 0.348833 -0.827701 -0.537558
H 2.777352 0.801697 0.444173
H 2.713678 -0.143869 -1.043042
H 2.551246 -1.275451 1.800139
H 2.814780 -2.757490 -0.882931
H 1.353741 -2.724691 0.134648
H 2.812602 -3.515880 0.730562
H 4.707940 -0.234736 1.217620
H 4.846515 -1.256868 -0.222154
H 4.744879 -3.158961 1.323421
H 6.940360 -2.289852 0.700437
H 6.555611 -0.858483 3.389519
H 6.843740 -0.077698 1.810585
H 8.117929 -1.071685 2.545647
H 6.475805 -4.385825 1.980681
H 6.551041 -3.457919 3.502359
H 8.414097 -5.639266 2.721202
H 8.517039 -4.657336 4.202403
H 10.768387 -5.588739 3.577250
H 10.427078 -3.878478 1.000412
H 11.928097 -4.836089 1.484169
H 10.585036 -2.518464 3.099514
H 12.084438 -3.457170 3.619133