36
H23 C10 N1 O2
C 0.820533 0.006075 -0.530056
O 2.201184 0.207587 -0.575529
C 2.890477 -0.821616 -1.225162
C 4.374348 -0.505842 -1.217510
N 5.117220 -1.560873 -1.877267
C 6.574707 -1.412156 -1.844170
C 7.104234 -1.812230 -0.469778
C 7.130933 -2.245242 -3.004897
C 8.640839 -2.244037 -3.312682
C 9.238551 -0.839447 -3.200589
C 9.409359 -3.236007 -2.436295
O 8.663629 -2.670055 -4.681968
C 9.892225 -3.003008 -5.258813
H 0.366590 0.859268 -0.005779
H 0.553771 -0.921208 0.014566
H 0.376465 -0.057921 -1.543213
H 2.532419 -0.932979 -2.271061
H 2.719991 -1.796536 -0.724448
H 4.699582 -0.421177 -0.168481
H 4.531639 0.493369 -1.677618
H 4.819751 -1.597819 -2.851072
H 6.851307 -0.350805 -2.018775
H 6.974382 -2.893471 -0.301928
H 6.566227 -1.278601 0.328055
H 8.168905 -1.562928 -0.357252
H 6.650533 -1.876226 -3.926275
H 6.797243 -3.289706 -2.878215
H 9.221292 -0.483469 -2.160161
H 8.673068 -0.128383 -3.822383
H 10.288539 -0.827046 -3.529663
H 9.293051 -2.996344 -1.372277
H 10.487321 -3.218642 -2.657886
H 9.036206 -4.258987 -2.600187
H 9.716557 -3.128840 -6.337605
H 10.307935 -3.952697 -4.874366
H 10.661693 -2.218740 -5.135721