30
H19 C8 N1 O2
C 5.134343 7.173100 1.706053
O 4.670632 5.862068 1.591593
C 5.198844 5.184180 0.483124
C 4.661566 3.767278 0.468380
C 5.093926 2.927309 -0.738676
C 4.504703 1.524210 -0.642751
N 6.554316 2.848313 -0.845781
C 7.157491 3.735660 -1.821135
C 8.678712 3.812112 -1.686643
C 9.366951 2.467789 -1.879184
O 9.190940 4.785281 -2.575415
H 4.673579 7.624115 2.596881
H 4.865123 7.788773 0.824634
H 6.235623 7.216759 1.822481
H 6.306369 5.171575 0.534562
H 4.925415 5.710253 -0.456536
H 3.560016 3.816496 0.495983
H 4.988748 3.258151 1.391404
H 4.679043 3.403565 -1.650820
H 4.916341 0.992967 0.231534
H 4.740015 0.936016 -1.543767
H 3.410664 1.559249 -0.533974
H 6.817489 1.890751 -1.064812
H 6.767398 4.754523 -1.679332
H 6.912102 3.452413 -2.870850
H 8.907598 4.184892 -0.674188
H 9.117080 2.039886 -2.865534
H 9.066176 1.745599 -1.104844
H 10.458864 2.590775 -1.822489
H 9.042933 4.463493 -3.473579