30
H19 C9 N1 O1
C 1.062791 -2.364697 1.409866
C 2.567623 -2.136879 1.352520
C 2.963070 -0.665994 1.481384
O 2.318417 0.137029 0.512293
C 4.474573 -0.441322 1.413653
N 5.193190 -1.110762 2.478200
C 6.604453 -0.755599 2.547741
C 7.265843 -1.462430 3.694458
C 8.336957 -2.272275 3.668609
C 9.119479 -2.629006 2.433052
C 8.861303 -2.896758 4.935130
H 0.815900 -3.431513 1.298440
H 0.550289 -1.809919 0.610159
H 0.647562 -2.022096 2.371629
H 2.974647 -2.526186 0.400402
H 3.057921 -2.707148 2.158570
H 2.609773 -0.292812 2.458209
H 2.577656 -0.193639 -0.357282
H 4.650666 0.643610 1.499833
H 4.828728 -0.734806 0.397944
H 5.126295 -2.119816 2.353846
H 6.666344 0.335148 2.717842
H 7.137422 -0.944105 1.594605
H 6.778461 -1.289005 4.662635
H 8.678147 -2.241670 1.505651
H 9.207250 -3.724408 2.341118
H 10.148981 -2.239210 2.506987
H 8.270907 -2.606252 5.816303
H 9.910616 -2.603469 5.109786
H 8.853627 -3.997491 4.859630