34
H21 C10 N1 O2
C 0.708388 -0.002539 0.325604
O 2.100029 0.009367 0.221712
C 2.741468 0.463155 1.379998
C 4.245801 0.432057 1.156114
N 4.956930 0.944438 2.312384
C 5.158191 2.387107 2.317495
C 6.364931 2.824375 1.482989
C 7.636282 2.107560 1.953090
O 7.990972 2.457593 3.277471
C 8.402506 3.779695 3.462340
C 7.435325 0.585173 1.942254
C 7.464689 0.012231 0.526502
C 6.156702 0.233966 2.728266
H 0.295991 -0.370617 -0.624987
H 0.297260 1.008699 0.516415
H 0.357865 -0.667956 1.139342
H 2.487463 -0.172383 2.253103
H 2.414109 1.494064 1.629193
H 4.471310 0.986355 0.222733
H 4.545515 -0.611295 0.974815
H 5.308687 2.717008 3.360240
H 4.243574 2.883317 1.959059
H 6.492182 3.916974 1.533889
H 6.198184 2.585575 0.420209
H 8.476103 2.372379 1.277815
H 8.843570 3.855486 4.467117
H 7.570485 4.505834 3.402612
H 9.170860 4.080002 2.722999
H 8.286763 0.158102 2.498548
H 6.682631 0.438788 -0.118677
H 7.318131 -1.079038 0.545688
H 8.435040 0.210569 0.043732
H 6.340453 0.477567 3.788598
H 5.967580 -0.849956 2.677378