26
H17 C8 N1
C 0.939381 -0.146373 0.136510
C 2.361866 -0.531475 -0.238373
N 3.169853 -0.726691 0.955569
C 4.594489 -0.991377 0.771992
C 4.931844 -2.181053 -0.142023
C 6.438989 -2.435244 -0.199644
C 7.196723 -1.182798 -0.641662
C 6.859625 0.013631 0.249137
C 5.351382 0.259910 0.313258
H 0.326875 0.029042 -0.761139
H 0.932553 0.768934 0.748722
H 0.455356 -0.946628 0.720604
H 2.808218 0.276651 -0.840537
H 2.330768 -1.423467 -0.898083
H 2.764480 -1.487174 1.499212
H 4.979019 -1.241333 1.778073
H 4.563190 -1.974541 -1.162322
H 4.399702 -3.079633 0.214177
H 6.658262 -3.275866 -0.877734
H 6.794678 -2.738907 0.801570
H 6.923559 -0.945019 -1.685676
H 8.282819 -1.369819 -0.635670
H 7.375277 0.917811 -0.112609
H 7.239120 -0.177202 1.269132
H 4.995652 0.560411 -0.688146
H 5.118170 1.091499 0.997708