33
H21 C10 N1 O1
C 1.331383 -0.036560 1.045129
O 2.634967 -0.144100 0.557380
C 2.744568 0.150679 -0.808285
C 4.199722 -0.049000 -1.250888
C 4.639590 -1.494501 -1.019773
N 4.490382 0.390515 -2.607164
C 4.852481 1.777466 -2.828325
C 3.682635 2.679681 -3.235608
C 2.947262 2.082709 -4.434552
C 2.525498 0.633731 -4.169991
C 1.867580 -0.004222 -5.387644
C 3.748231 -0.183117 -3.712882
H 1.345530 -0.276902 2.117994
H 0.639655 -0.738087 0.538309
H 0.924903 0.986739 0.921554
H 2.430413 1.194846 -1.002453
H 2.072918 -0.507625 -1.399069
H 4.807394 0.589177 -0.587848
H 4.052809 -2.198227 -1.632176
H 4.496049 -1.773906 0.033303
H 5.701892 -1.616468 -1.279111
H 5.604622 1.815806 -3.642086
H 5.346945 2.165997 -1.924915
H 4.059921 3.687374 -3.475917
H 2.984741 2.792495 -2.388968
H 3.617500 2.099105 -5.315159
H 2.067809 2.693442 -4.698747
H 1.793446 0.641360 -3.343558
H 2.568007 -0.045180 -6.239084
H 0.984032 0.568773 -5.711075
H 1.540011 -1.034781 -5.174956
H 4.427549 -0.275820 -4.585444
H 3.438097 -1.207567 -3.455439