23
H13 C6 N1 O1 F2
C 2.966314 1.427473 -0.083361
C 2.518458 -0.027727 -0.065370
O 1.111924 -0.134938 -0.151453
C 3.024006 -0.798313 1.155559
N 4.470010 -0.843631 1.227519
C 4.977035 -1.722815 2.262417
C 6.499568 -1.725370 2.264882
C 7.085634 -2.631272 3.312495
F 6.730207 -3.928147 3.077894
F 8.446308 -2.588656 3.261179
H 4.061904 1.513825 -0.147761
H 2.632345 1.949161 0.830172
H 2.534743 1.944189 -0.953561
H 2.911433 -0.530529 -0.964596
H 0.738500 0.339377 0.602068
H 2.642834 -1.829897 1.079336
H 2.557122 -0.357905 2.067211
H 4.831125 0.095035 1.392378
H 4.612280 -2.744270 2.064055
H 4.607958 -1.452089 3.275954
H 6.879504 -0.709734 2.461040
H 6.881109 -2.041528 1.280981
H 6.776668 -2.381820 4.340312