27
H17 C8 N1 O1
C 1.172663 0.258740 -0.171387
O 2.433201 -0.336810 -0.263979
C 2.839336 -1.055041 0.883747
C 2.288638 -2.476368 0.843735
C 4.373987 -0.986345 0.922760
C 4.842560 0.455965 1.071508
N 4.875254 -1.813514 2.014731
C 6.303072 -1.836488 2.166865
C 6.986689 -3.131501 2.469541
C 7.203388 -2.469607 1.130135
H 0.971692 0.770820 -1.123582
H 1.129218 1.007919 0.643032
H 0.362707 -0.475784 -0.001664
H 2.456284 -0.547449 1.792502
H 2.748686 -3.048712 0.022027
H 1.200234 -2.460841 0.683581
H 2.465345 -3.006724 1.791206
H 4.726735 -1.360643 -0.064357
H 4.586191 0.841166 2.072271
H 4.353114 1.084507 0.315566
H 5.930177 0.547162 0.935496
H 4.542854 -2.767578 1.900183
H 6.710797 -0.953080 2.670013
H 6.367392 -4.034185 2.491126
H 7.805532 -3.129453 3.193754
H 6.717819 -2.928082 0.263177
H 8.174534 -2.010594 0.924354