30
H17 C9 N1 O1 F2
C 1.011939 0.139651 0.053806
O 2.393454 -0.058143 0.087171
C 2.848700 -0.597778 1.295575
C 4.358851 -0.761017 1.209592
N 4.922591 -1.304939 2.434032
C 4.782227 -2.752090 2.490682
C 5.107129 -3.401136 3.834836
C 6.594359 -3.429844 4.181755
C 7.142329 -2.143593 4.765036
F 8.509183 -2.158583 4.609397
F 6.947583 -2.143011 6.126605
C 6.592231 -0.840091 4.220350
C 6.262632 -0.816378 2.728311
H 0.749932 0.563638 -0.926240
H 0.673766 0.842612 0.840590
H 0.453472 -0.808296 0.185179
H 2.353227 -1.569394 1.495387
H 2.604755 0.067680 2.148771
H 4.786362 0.236033 1.028089
H 4.604845 -1.378611 0.319340
H 5.412377 -3.237702 1.709339
H 3.739867 -2.998491 2.240900
H 4.755300 -4.442178 3.779615
H 4.527754 -2.919873 4.639939
H 7.176047 -3.652316 3.274157
H 6.817766 -4.225029 4.908609
H 7.334562 -0.064517 4.460820
H 5.674256 -0.601756 4.775961
H 7.046412 -1.355306 2.151648
H 6.309993 0.231261 2.402729