31
H19 C9 N1 O2
C 0.756087 0.332794 0.284032
C 1.953349 0.134426 0.836364
C 2.859057 1.222872 1.338005
N 4.166695 1.183563 0.702221
C 4.132325 1.468057 -0.726786
C 4.504199 0.252461 -1.559916
O 4.461573 0.601493 -2.914058
C 4.774211 -0.455530 -3.770364
C 5.197548 1.898161 1.428829
C 6.593031 1.405783 1.082391
O 7.516634 2.114664 1.858173
C 8.841769 1.749640 1.612803
H 0.132155 -0.502768 -0.047188
H 0.352169 1.342299 0.146451
H 2.339287 -0.886463 0.951492
H 3.009220 1.071470 2.419960
H 2.358675 2.208747 1.217622
H 4.821863 2.292925 -0.978461
H 3.126637 1.804485 -1.033737
H 3.800416 -0.576997 -1.342103
H 5.515479 -0.103021 -1.273306
H 4.715188 -0.088311 -4.805111
H 4.068472 -1.302473 -3.659507
H 5.797267 -0.843523 -3.595354
H 5.045610 1.735556 2.506913
H 5.155846 2.996476 1.259578
H 6.805121 1.548530 0.002787
H 6.654637 0.315867 1.281180
H 9.489634 2.354209 2.263662
H 9.134652 1.932883 0.560061
H 9.025275 0.679538 1.833300