23
H12 C7 O4
C 6.296728 -4.205953 1.197775
C 5.985703 -2.810977 0.671560
C 6.591612 -2.560148 -0.695226
O 6.261394 -1.259600 -1.118568
C 6.779247 -0.921663 -2.368378
C 6.380508 0.515739 -2.627156
C 6.947118 1.512917 -1.611586
O 7.397175 2.587317 -2.436890
C 7.460972 2.195075 -3.712393
O 7.908043 2.850372 -4.604035
O 6.949864 0.965472 -3.857594
H 5.847751 -4.363297 2.189822
H 7.382773 -4.365921 1.293924
H 5.902697 -4.985369 0.525781
H 6.366363 -2.046547 1.369032
H 4.895213 -2.663351 0.603498
H 6.214679 -3.304853 -1.425217
H 7.693451 -2.678987 -0.655061
H 6.382018 -1.575325 -3.168855
H 7.885244 -1.000718 -2.388456
H 5.285148 0.597527 -2.703156
H 7.805799 1.104399 -1.057202
H 6.198411 1.889110 -0.905720