27
H14 C8 N1 O1 F3
C 0.845560 0.046379 -0.366727
N 2.230000 -0.322701 -0.144664
C 2.419540 -1.354844 0.865400
C 2.523469 -0.797914 2.286422
O 1.292479 -0.252632 2.733079
C 3.044246 -1.781724 3.320067
C 2.767955 -3.262490 3.261034
C 4.168763 -2.745171 3.072771
C 2.984625 -0.522580 -1.355211
C 4.352222 0.120897 -1.270984
F 4.276262 1.444148 -1.087464
F 5.092726 -0.365228 -0.260518
F 5.050720 -0.083111 -2.397621
H 0.376097 0.275718 0.597751
H 0.256397 -0.758134 -0.857745
H 0.788834 0.947191 -0.996082
H 3.347794 -1.895939 0.639168
H 1.599790 -2.103331 0.823785
H 3.216530 0.058021 2.243228
H 0.680458 -0.991146 2.848553
H 3.019226 -1.341882 4.322427
H 2.255256 -3.662759 2.381949
H 2.524992 -3.776009 4.195098
H 4.603584 -2.797848 2.070616
H 4.889750 -2.896213 3.880514
H 2.480041 -0.042012 -2.205484
H 3.134365 -1.585127 -1.626732