30
H19 C9 N1 O1
C 6.486092 -2.387070 -0.748739
O 6.086942 -1.050595 -0.683379
C 4.788922 -0.836953 -1.168601
C 4.439437 0.646493 -1.138966
C 2.925372 0.824494 -1.180576
N 5.020498 1.384902 -2.254086
C 6.470639 1.501201 -2.314356
C 7.168875 0.495666 -3.236869
C 8.571547 1.083812 -3.407885
C 8.371051 2.620996 -3.377798
C 6.919903 2.842735 -2.907041
H 7.504522 -2.460037 -0.341193
H 6.496883 -2.767469 -1.789247
H 5.822047 -3.045866 -0.154862
H 4.062630 -1.396708 -0.544980
H 4.687387 -1.213809 -2.207764
H 4.812336 1.025246 -0.161695
H 2.507514 0.381494 -2.098980
H 2.659725 1.893242 -1.169464
H 2.444239 0.349413 -0.312907
H 4.618580 2.319453 -2.244283
H 6.914108 1.394326 -1.303208
H 6.626693 0.482635 -4.198574
H 7.171213 -0.525270 -2.831900
H 9.067992 0.737594 -4.326637
H 9.208434 0.770221 -2.565069
H 8.536678 3.070819 -4.368223
H 9.090158 3.096300 -2.693712
H 6.265344 3.068722 -3.766736
H 6.816067 3.672492 -2.190913