27
H17 C8 N1 O1
C 1.743360 0.755569 -0.015204
C 3.052761 0.508429 -0.057800
C 3.750771 -0.257993 -1.144733
N 4.583580 -1.330119 -0.620986
C 3.792094 -2.408646 -0.066305
C 5.566084 -1.802853 -1.577808
C 6.767330 -0.871647 -1.754268
C 7.515615 -0.644877 -0.448452
O 7.565983 -1.485116 -2.743341
C 8.569116 -0.678724 -3.286782
H 1.298571 1.347788 0.790121
H 1.065510 0.377608 -0.789082
H 3.705959 0.890199 0.737376
H 4.398852 0.447759 -1.689249
H 3.006580 -0.636610 -1.881090
H 3.090443 -2.019155 0.686522
H 4.444226 -3.143444 0.429433
H 3.192886 -2.945159 -0.835439
H 5.120682 -1.986062 -2.579797
H 5.955908 -2.771350 -1.225866
H 6.420080 0.109748 -2.138266
H 7.942462 -1.594071 -0.085568
H 6.821364 -0.263249 0.313477
H 8.331462 0.084301 -0.562805
H 9.013693 -1.221353 -4.133871
H 9.377441 -0.451497 -2.566877
H 8.167786 0.282944 -3.662920