17
H10 C4 N1 O1 F1
C 4.493191 2.922557 -1.598554
N 3.852221 1.739287 -1.052486
C 4.734077 0.807747 -0.359858
C 4.545386 0.939814 1.157618
O 3.173384 0.948769 1.449719
C 5.161660 2.203667 1.745955
F 6.512195 2.283795 1.438685
H 3.738891 3.574691 -2.063866
H 5.264625 2.691801 -2.359988
H 4.984254 3.500849 -0.802224
H 3.351561 1.257424 -1.793390
H 5.796127 0.945202 -0.630683
H 4.457061 -0.220443 -0.637270
H 5.007617 0.067248 1.649425
H 2.799956 1.442301 0.695273
H 5.053855 2.201278 2.841851
H 4.658578 3.098384 1.344131