32
H21 C10 N1
C 5.611190 -2.901896 4.255875
C 6.536430 -1.709708 4.462436
C 6.062294 -0.453158 3.741740
N 6.962527 0.659889 3.975412
C 6.530903 1.955137 3.457555
C 7.504470 3.043658 3.920874
C 7.687142 3.098925 5.432461
C 6.297542 1.928397 1.944046
C 6.697925 3.019393 0.983548
C 7.432395 1.704937 0.982428
C 7.293800 0.731051 -0.162016
H 5.980110 -3.792885 4.786639
H 5.524984 -3.162385 3.188323
H 4.595868 -2.688636 4.628237
H 7.550926 -1.962154 4.105842
H 6.634729 -1.482623 5.537263
H 5.062402 -0.171138 4.118499
H 5.926307 -0.691278 2.664778
H 7.877909 0.440751 3.580324
H 5.555160 2.170861 3.932102
H 8.485652 2.889050 3.436119
H 7.135584 4.017819 3.564505
H 8.090768 2.152615 5.819530
H 6.725246 3.280234 5.939969
H 8.374127 3.910585 5.718224
H 5.374487 1.407273 1.666009
H 7.221384 3.899015 1.365956
H 6.023069 3.227925 0.147386
H 8.433037 1.738281 1.430543
H 6.266699 0.734646 -0.560494
H 7.524602 -0.297693 0.159085
H 7.974995 0.982272 -0.991368