39
H25 C12 N1 O1
C 1.254885 7.699789 -0.630445
O 0.860203 6.392359 -0.920037
C 1.855362 5.442876 -0.655750
C 1.412689 4.057996 -1.140915
N 2.043821 2.998561 -0.358849
C 1.216179 2.320857 0.629971
C 2.054844 1.260233 1.387859
C 1.748291 1.450740 2.879136
C 1.416455 2.945804 3.015677
C 2.665106 3.825439 3.082780
C 0.575987 3.188895 1.753919
C 1.667688 3.831613 -2.648083
C 1.083855 2.491571 -3.090585
C 1.147334 4.962101 -3.535464
H 0.408304 8.368223 -0.842999
H 2.117354 8.019011 -1.248322
H 1.537901 7.820917 0.433904
H 2.059038 5.402945 0.432634
H 2.811881 5.728350 -1.144397
H 0.321295 4.012753 -0.973794
H 2.907088 3.331983 0.064078
H 0.404741 1.831235 0.066385
H 3.122764 1.445502 1.188778
H 1.846257 0.237690 1.040692
H 2.576617 1.130053 3.530607
H 0.862641 0.857393 3.161092
H 0.819575 3.130910 3.923799
H 3.329690 3.670726 2.218115
H 3.251639 3.610415 3.990468
H 2.394606 4.893233 3.103797
H 0.493970 4.251611 1.481002
H -0.449920 2.829203 1.935901
H 2.766763 3.780720 -2.766100
H -0.016889 2.499413 -3.010119
H 1.465800 1.672089 -2.464874
H 1.339658 2.271220 -4.139245
H 0.059036 5.091008 -3.415739
H 1.343263 4.734701 -4.595750
H 1.619486 5.928070 -3.306486