27
H16 C8 N1 O1 F1
C 3.840756 5.901992 4.640251
C 4.269778 6.362706 3.261922
C 3.777840 7.729895 2.740378
C 3.713655 7.118163 1.327737
C 3.695746 5.711479 1.964478
N 2.332355 5.228056 2.096424
C 2.216645 3.850288 2.538490
C 0.773288 3.502131 2.893583
O -0.110342 3.721897 1.816388
C 0.265760 4.259647 4.113391
F 1.034624 3.948694 5.224328
H 4.196009 6.612735 5.404399
H 4.256528 4.913022 4.891704
H 2.746006 5.839677 4.723780
H 5.369391 6.330108 3.187651
H 4.430902 8.601797 2.897753
H 2.773330 7.964257 3.125758
H 4.638911 7.291232 0.759008
H 2.852589 7.375882 0.691359
H 4.353781 4.954579 1.490536
H 1.887092 5.314277 1.184089
H 2.834535 3.700330 3.435788
H 2.579312 3.128535 1.777710
H 0.725632 2.424554 3.118466
H -0.165391 4.674849 1.665953
H -0.778309 3.980959 4.322777
H 0.332254 5.346920 3.944022