39
H25 C12 N1 O1
C 1.570063 0.633745 1.136008
C 3.046604 0.310933 1.185556
O 3.219915 -1.080269 1.122867
C 4.558013 -1.487864 1.167616
C 4.642882 -3.010192 1.048743
C 4.105366 -3.490699 -0.293823
N 6.002384 -3.493916 1.252328
C 6.469404 -3.578705 2.638194
C 5.967629 -4.879310 3.262012
C 7.995706 -3.436000 2.628765
C 8.744369 -3.438243 3.960747
C 8.139798 -2.825463 5.248185
C 8.862595 -3.923040 6.058476
C 9.014216 -4.739473 4.756201
H 1.414656 1.721713 1.185976
H 1.041898 0.168762 1.982494
H 1.121474 0.262237 0.201917
H 3.496479 0.711494 2.117127
H 3.576218 0.801221 0.343173
H 5.032187 -1.156724 2.113870
H 5.137348 -1.025789 0.338648
H 4.009774 -3.431607 1.847719
H 4.743226 -3.123648 -1.115736
H 3.084307 -3.119967 -0.464346
H 4.097483 -4.590269 -0.334596
H 6.642444 -2.924389 0.700662
H 6.064763 -2.739795 3.242025
H 6.457804 -5.748516 2.794232
H 4.881724 -4.984652 3.112905
H 6.150041 -4.912738 4.345787
H 8.218300 -2.484396 2.113789
H 8.415032 -4.232235 1.986365
H 9.721299 -2.958743 3.784074
H 7.047445 -2.951357 5.293199
H 8.377616 -1.774115 5.472585
H 8.308241 -4.387971 6.887425
H 9.835827 -3.576965 6.439381
H 8.212031 -5.481337 4.641894
H 9.977831 -5.240838 4.575742