27
H17 C8 N1 O1
O 0.856488 0.629134 0.065788
C 2.100955 0.121803 0.484993
C 3.162908 1.168777 0.153100
N 4.512628 0.849850 0.555373
C 4.782815 0.886309 1.984810
C 5.954492 1.811232 2.324672
C 7.328891 1.319341 1.871288
C 7.429634 0.860077 0.412770
C 6.626712 -0.412332 0.120166
C 5.148509 -0.198930 -0.216278
H 0.182693 -0.033677 0.249816
H 2.338751 -0.831626 -0.024394
H 2.110909 -0.081243 1.574330
H 2.858392 2.119248 0.624186
H 3.144842 1.340276 -0.937502
H 4.959714 -0.126846 2.398825
H 3.886553 1.264271 2.501082
H 5.979258 1.976078 3.415773
H 5.739761 2.790226 1.862144
H 7.636481 0.474371 2.513941
H 8.065517 2.120198 2.052022
H 8.491766 0.663765 0.192963
H 7.117385 1.671312 -0.267958
H 6.718433 -1.088253 0.987389
H 7.075249 -0.956733 -0.726292
H 4.634460 -1.181145 -0.118882
H 5.059874 0.084468 -1.280335