34
H21 C10 N1 F2
C 1.504406 0.043609 0.805927
C 2.706300 0.640642 0.083410
C 3.028207 0.013891 -1.278070
C 1.879130 0.128423 -2.291042
C 0.988898 -1.082190 -2.363107
F 0.014279 -0.886844 -3.297463
F 1.704309 -2.171659 -2.779454
C 4.302757 0.650079 -1.853291
N 4.743220 0.054638 -3.101515
C 5.491251 0.977238 -3.944783
C 4.606892 1.965076 -4.691872
C 5.412631 -1.226752 -2.921680
C 5.231972 -2.163193 -4.107658
H 1.393707 0.482873 1.809328
H 1.611649 -1.046409 0.930076
H 0.562651 0.231189 0.266426
H 3.596668 0.541917 0.727307
H 2.548633 1.725528 -0.055147
H 3.234525 -1.057909 -1.111063
H 2.297309 0.254512 -3.301968
H 1.244760 1.002918 -2.073911
H 0.496233 -1.357535 -1.418607
H 5.103974 0.615912 -1.082843
H 4.094767 1.718070 -2.028395
H 6.052110 0.387824 -4.685821
H 6.257185 1.526362 -3.353106
H 3.908648 1.431647 -5.355688
H 5.220135 2.640877 -5.308234
H 4.012972 2.590629 -4.007487
H 4.991432 -1.714472 -2.030041
H 6.494790 -1.085093 -2.706685
H 4.162797 -2.367752 -4.269024
H 5.746065 -3.120342 -3.928067
H 5.641138 -1.737042 -5.037041