33
H21 C10 N1 O1
C 4.444895 -0.153396 -0.360504
C 4.074394 0.177732 1.080420
C 2.662751 -0.279981 1.467301
C 2.459765 -1.799461 1.596456
N 2.942593 -2.386805 2.840089
C 4.365780 -2.691305 2.946044
C 4.909876 -3.482265 1.766747
C 2.370029 -1.646337 3.969094
C 2.717626 -2.217901 5.340994
C 2.291543 -3.669901 5.520355
C 2.698634 -0.158814 3.852440
O 2.207764 0.376197 2.642532
H 5.450938 0.220143 -0.604574
H 3.736762 0.307140 -1.068568
H 4.443042 -1.238017 -0.550542
H 4.102535 1.270575 1.224132
H 4.823858 -0.245201 1.766582
H 1.981654 0.071781 0.673247
H 2.899945 -2.314296 0.731671
H 1.372594 -1.986769 1.549958
H 4.503758 -3.306251 3.848318
H 4.999309 -1.793269 3.099362
H 4.276026 -4.359220 1.559306
H 5.923928 -3.840762 1.999054
H 4.978452 -2.882455 0.847535
H 1.271626 -1.722896 3.853614
H 2.207860 -1.593035 6.092678
H 3.796110 -2.106310 5.542620
H 1.202923 -3.778027 5.388027
H 2.545466 -4.037501 6.526419
H 2.777385 -4.330783 4.786620
H 3.791189 0.000139 3.948373
H 2.212480 0.408752 4.660620