36
H23 C11 N1 O1
C 1.732072 -0.403552 0.923572
C 2.549562 -0.848018 -0.032556
C 3.059708 -0.033923 -1.185955
C 4.585213 0.094106 -1.175144
C 5.189417 0.760098 -2.416361
C 4.623467 2.160066 -2.653364
N 6.648182 0.806621 -2.275607
C 7.452762 0.320485 -3.389330
C 7.413495 1.224226 -4.631812
C 6.264787 0.989146 -5.608373
C 8.886635 0.198811 -2.877615
O 9.684310 -0.424265 -3.841645
C 11.033659 -0.491577 -3.486928
H 1.404337 -1.050819 1.742798
H 1.356828 0.626349 0.921890
H 2.904285 -1.886652 0.013291
H 2.588645 0.961582 -1.169304
H 2.753454 -0.518544 -2.130922
H 5.029484 -0.912119 -1.077321
H 4.896330 0.662768 -0.279616
H 4.921336 0.123669 -3.282535
H 4.751948 2.780118 -1.750573
H 3.552438 2.134786 -2.907711
H 5.151016 2.661246 -3.477589
H 6.911365 0.278698 -1.446628
H 7.140555 -0.700597 -3.705114
H 8.355920 1.055977 -5.175823
H 7.427293 2.273957 -4.290871
H 6.235825 -0.063806 -5.933000
H 6.393011 1.608178 -6.510267
H 5.279500 1.232243 -5.185482
H 8.894161 -0.388721 -1.935469
H 9.275317 1.209073 -2.631262
H 11.575127 -0.997805 -4.298742
H 11.188471 -1.065266 -2.552107
H 11.474828 0.514323 -3.344383