22
H15 C6 N1
C 1.176227 -0.238212 0.234739
C 2.553963 0.020148 -0.369000
C 2.475040 0.082766 -1.894687
N 3.123266 1.253744 0.184579
C 4.497595 1.177286 0.671972
C 5.487229 0.958795 -0.468620
C 4.818873 2.456937 1.435839
H 0.721954 -1.148452 -0.184991
H 0.498312 0.606112 0.023253
H 1.239401 -0.360971 1.327735
H 3.201145 -0.837649 -0.094672
H 1.803776 0.899895 -2.206351
H 2.088764 -0.860553 -2.313545
H 3.462338 0.272487 -2.340430
H 2.537838 1.571921 0.953359
H 4.615938 0.323263 1.377127
H 5.404302 1.769776 -1.211032
H 5.312611 0.002528 -0.984544
H 6.519111 0.942066 -0.084657
H 4.732045 3.333512 0.773303
H 5.841646 2.428258 1.841076
H 4.125257 2.598622 2.280678