38
H25 C11 N1 O1
C 1.001139 0.339164 0.104613
C 2.447665 -0.095041 0.210740
O 3.194539 0.980718 0.719388
C 4.616184 0.887425 0.706623
C 5.109224 -0.413742 1.339448
C 5.145431 1.033047 -0.722978
C 5.038198 2.089686 1.567460
N 6.471822 2.271518 1.644220
C 6.890272 3.248676 2.633143
C 8.405211 3.407981 2.636607
C 8.943923 4.484966 3.585767
C 8.585583 4.208342 5.046667
C 10.456227 4.633312 3.418805
H 0.377982 -0.487741 -0.267974
H 0.899764 1.190533 -0.585789
H 0.616043 0.646586 1.089155
H 2.816067 -0.408046 -0.784396
H 2.523266 -0.979195 0.872100
H 4.922348 -1.285404 0.694236
H 4.613397 -0.581527 2.308524
H 6.191605 -0.342304 1.516138
H 4.789848 0.215799 -1.368188
H 6.245386 1.000164 -0.739210
H 4.814897 1.988374 -1.159939
H 4.650633 1.920339 2.585973
H 4.505296 2.981934 1.174651
H 6.827567 2.558339 0.733545
H 6.542044 2.902691 3.621054
H 6.418746 4.244403 2.472871
H 8.730818 3.650951 1.608968
H 8.864777 2.433804 2.883502
H 8.477455 5.445769 3.299433
H 8.974558 3.226175 5.366091
H 7.498032 4.209789 5.216429
H 9.021634 4.971749 5.710582
H 10.975137 3.700458 3.697864
H 10.852867 5.439179 4.056640
H 10.725786 4.865931 2.376184