29
H18 C9 N2
C 1.035595 0.210488 -0.244230
C 2.554747 0.104219 -0.237449
N 3.094562 -0.390810 1.022012
C 2.624171 -1.744372 1.333343
C 1.590853 -1.793844 2.452167
C 4.543016 -0.237794 1.209156
C 5.083317 1.080628 0.660231
C 4.865965 -0.353305 2.709600
C 6.352291 -0.611073 2.988247
C 6.632750 -0.753800 4.413937
N 6.841292 -0.865318 5.546110
H 0.698589 0.663898 -1.189118
H 0.689062 0.846501 0.585657
H 0.540888 -0.768472 -0.155167
H 2.951139 1.109900 -0.423401
H 2.879825 -0.525489 -1.097874
H 3.481420 -2.381245 1.608394
H 2.204972 -2.214733 0.424484
H 2.001515 -1.375973 3.384518
H 1.278949 -2.831999 2.650617
H 0.692735 -1.213065 2.194718
H 5.082698 -1.060968 0.685966
H 4.514471 1.934343 1.062788
H 5.054331 1.124282 -0.437032
H 6.134965 1.210622 0.952503
H 4.294378 -1.178794 3.155177
H 4.539134 0.569264 3.216520
H 6.990421 0.203282 2.612939
H 6.684588 -1.535772 2.489826