20
H12 C6 O2
C 1.160811 -0.272274 0.329921
O 2.166033 0.552260 -0.196627
C 2.640296 0.210965 -1.475002
C 1.540658 0.416668 -2.524216
O 1.957205 0.181825 -3.844366
C 3.957294 0.941734 -1.803615
C 4.557422 -0.394092 -2.290683
C 3.392566 -1.140992 -1.605939
H 1.090271 -0.061279 1.406937
H 1.394178 -1.346193 0.206704
H 0.168543 -0.082070 -0.117979
H 1.136070 1.439578 -2.392778
H 0.718972 -0.291153 -2.331343
H 2.560106 0.889074 -4.101734
H 4.421220 1.294045 -0.871452
H 3.910712 1.783542 -2.513949
H 5.571196 -0.633052 -1.939000
H 4.527315 -0.494670 -3.384216
H 3.673108 -1.523879 -0.613410
H 2.895363 -1.938737 -2.177493