35
H23 C10 N1 O1
C 0.911548 2.230002 2.688285
C 2.403898 2.018936 2.464320
C 3.036794 2.847504 1.343413
C 2.944022 4.362437 1.573712
O 1.655685 4.901032 1.404747
N 4.442454 2.485743 1.220634
C 5.039916 2.620470 -0.107094
C 4.654080 1.450662 -1.017121
C 6.567540 2.810944 0.026250
C 7.276220 2.793591 -1.328564
C 6.883311 4.092420 0.810412
C 8.326933 4.218871 1.284269
H 0.539621 1.548268 3.468948
H 0.339298 2.026309 1.768409
H 0.685583 3.260801 2.992284
H 2.584093 0.954574 2.231092
H 2.958935 2.227096 3.396566
H 2.476745 2.627108 0.405412
H 3.670827 4.864262 0.906548
H 3.254895 4.587831 2.607480
H 1.354514 4.672537 0.517401
H 4.584414 1.531751 1.547047
H 4.637310 3.547838 -0.553508
H 5.145145 0.521076 -0.681766
H 4.930642 1.622495 -2.067548
H 3.565509 1.286303 -0.989383
H 6.940256 1.952086 0.618909
H 6.856445 3.561999 -2.000577
H 7.188613 1.820580 -1.833383
H 8.351119 3.001234 -1.218659
H 6.212781 4.122772 1.682370
H 6.620109 4.964173 0.183029
H 8.613470 3.360912 1.914845
H 8.465642 5.131486 1.884985
H 9.041824 4.268797 0.447905