29
H17 C9 N1 F2
C 0.714639 -0.642286 0.113266
C 2.230671 -0.680685 0.252879
C 2.740582 0.206450 1.387164
N 4.188745 0.156002 1.552044
C 4.886283 1.403529 1.353141
C 5.078815 1.733970 -0.110082
F 3.889982 2.014784 -0.718281
F 5.839980 2.856796 -0.226277
C 4.694236 -0.634648 2.651210
C 4.383857 -0.301275 4.137440
C 4.397985 -1.820149 4.410508
C 4.158807 -2.057986 2.903059
H 0.369962 -1.280689 -0.714560
H 0.357469 0.381765 -0.084715
H 0.218761 -0.993452 1.033271
H 2.706754 -0.354355 -0.686178
H 2.567508 -1.716093 0.428500
H 2.230901 -0.076891 2.326611
H 2.433395 1.246274 1.189217
H 5.898491 1.327286 1.777028
H 4.396958 2.274698 1.836095
H 5.561132 0.917652 -0.670152
H 5.788530 -0.696318 2.535319
H 3.370917 0.115578 4.252413
H 5.096907 0.338257 4.679549
H 3.647554 -2.218552 5.108409
H 5.393112 -2.168447 4.726658
H 3.081886 -2.132912 2.691242
H 4.676132 -2.892930 2.406280