32
H20 C9 N1 O1 F1
C 1.664704 -1.741678 -7.381057
C 0.997990 -3.095574 -7.171626
C 0.958355 -3.651306 -5.737064
C 2.349612 -4.083650 -5.276083
C 0.305378 -2.655019 -4.750566
N 1.238399 -1.700236 -4.177799
C 0.677420 -0.671295 -3.309868
C -0.028356 -1.256335 -2.091630
C -0.246507 0.301311 -4.032802
F 0.421356 0.859023 -5.120280
O 0.075962 -4.769723 -5.864839
C 0.061111 -5.726864 -4.845739
H 1.676967 -1.490043 -8.452479
H 2.710692 -1.733143 -7.034557
H 1.127063 -0.930594 -6.866648
H 1.489736 -3.855538 -7.801472
H -0.048732 -3.042575 -7.513134
H 3.061173 -3.250272 -5.347463
H 2.716552 -4.903556 -5.913340
H 2.351198 -4.421092 -4.229111
H -0.126829 -3.242619 -3.926060
H -0.551256 -2.186614 -5.278778
H 1.763985 -1.238510 -4.915063
H 1.535753 -0.077362 -2.950936
H -0.973818 -1.753407 -2.359332
H -0.262045 -0.466320 -1.362596
H 0.621667 -1.996669 -1.602059
H -0.550636 1.122932 -3.365485
H -1.151407 -0.197150 -4.415837
H -0.793101 -6.392065 -5.040738
H -0.076692 -5.292885 -3.837813
H 0.975278 -6.347713 -4.826197