35
H23 C10 N1 O1
C 2.894790 2.269091 0.517954
C 4.214025 1.505093 0.377323
C 5.383437 2.475700 0.206539
N 4.474468 0.604553 1.500225
C 4.224068 -0.818620 1.316959
C 2.737728 -1.171098 1.086619
C 1.756889 -0.866695 2.212552
O 0.415649 -0.925364 1.781651
C 4.972300 -1.642603 2.413978
C 4.688348 -1.130161 3.834529
C 4.581866 -3.123364 2.328062
C 6.480912 -1.519237 2.151552
H 2.734727 2.949376 -0.333212
H 2.902537 2.880544 1.436505
H 2.031452 1.589423 0.572326
H 4.155690 0.886170 -0.535263
H 5.497172 3.100794 1.108086
H 5.233607 3.145692 -0.655460
H 6.324763 1.924892 0.057233
H 4.019303 0.952212 2.340483
H 4.723824 -1.094561 0.371284
H 2.413690 -0.593744 0.202310
H 2.635088 -2.228207 0.796826
H 1.985432 0.120382 2.661143
H 1.847143 -1.609755 3.019383
H 0.311020 -0.285196 1.067721
H 3.619782 -1.165311 4.090995
H 5.039783 -0.095726 3.969689
H 5.221011 -1.753228 4.571223
H 3.538206 -3.295783 2.633288
H 5.222175 -3.725271 2.992957
H 4.705964 -3.513291 1.304271
H 6.784868 -0.462548 2.125788
H 6.754440 -1.975399 1.185872
H 7.060886 -2.027229 2.939050