21
H12 C6 N1 O1 F1
O 2.930725 -0.037899 -1.388270
C 2.306593 0.008672 -0.133000
C 0.805744 0.029438 -0.299593
F 0.381064 1.214563 -0.882147
C 2.836802 1.215048 0.644599
N 4.276610 1.223473 0.560667
C 5.030947 2.394837 1.022129
C 6.125105 1.448994 1.549366
C 5.065823 0.338974 1.431730
H 3.798385 0.371962 -1.224423
H 2.528269 -0.910236 0.452517
H 0.486990 -0.801231 -0.948508
H 0.313152 -0.069222 0.680971
H 2.466140 1.195179 1.691265
H 2.462326 2.135050 0.168324
H 4.517509 2.934877 1.841050
H 5.299958 3.117871 0.235133
H 6.526046 1.654879 2.550043
H 6.953588 1.321047 0.839232
H 4.558702 0.135686 2.395656
H 5.366102 -0.620453 0.980611