24
H15 C7 N1 O1
C 0.830554 0.077106 0.041062
C 2.352815 -0.059794 -0.114163
C 2.929994 0.971092 -1.092236
C 2.600735 0.651567 -2.549012
O 3.156892 1.598127 -3.435567
C 3.043076 -0.772615 -2.869241
C 2.476296 -1.769084 -1.864400
N 2.815355 -1.395208 -0.502219
C 2.506306 -2.432049 0.454063
H 0.573532 1.099378 0.358429
H 0.444142 -0.612364 0.806991
H 0.290166 -0.126020 -0.896250
H 2.796621 0.143288 0.875647
H 4.029492 0.979730 -0.986485
H 2.565807 1.979401 -0.840657
H 1.510240 0.723483 -2.698230
H 4.115409 1.569702 -3.323166
H 4.146843 -0.811026 -2.831262
H 2.735479 -1.043357 -3.891304
H 2.894964 -2.769104 -2.060399
H 1.376642 -1.862204 -2.014138
H 3.079259 -3.343745 0.219069
H 1.432474 -2.718194 0.482109
H 2.791226 -2.108648 1.467758