33
H21 C10 N1 O1
C 6.294308 -2.194014 0.035481
O 6.016886 -0.882663 -0.355318
C 4.684206 -0.688442 -0.743019
C 4.474625 0.724074 -1.275111
C 2.981211 1.009828 -1.389188
N 5.091614 0.918388 -2.580400
C 6.554889 1.025446 -2.636789
C 7.159931 -0.213979 -3.292644
C 6.945742 2.325001 -3.351678
C 8.432134 2.589858 -3.423905
C 9.244998 2.129391 -4.603017
C 8.970443 3.595431 -4.404070
H 7.352780 -2.247134 0.327857
H 6.120685 -2.917359 -0.785402
H 5.675787 -2.507787 0.899543
H 4.012486 -0.858781 0.123339
H 4.396083 -1.413482 -1.532500
H 4.905304 1.412403 -0.514461
H 2.504496 0.311140 -2.095597
H 2.810520 2.033469 -1.757782
H 2.481066 0.914854 -0.414229
H 4.677724 1.743528 -3.006361
H 6.949442 1.081922 -1.606161
H 6.831550 -0.296119 -4.342165
H 6.832312 -1.115692 -2.755844
H 8.260547 -0.190860 -3.275272
H 6.455755 3.162412 -2.823482
H 6.527212 2.312266 -4.375275
H 8.941544 2.553647 -2.453939
H 8.714136 1.617113 -5.410961
H 10.259490 1.762379 -4.424595
H 8.254196 4.075921 -5.077911
H 9.795798 4.239101 -4.087944