28
H17 C8 N1 F2
C 1.041210 0.054326 -0.206052
C 2.537525 0.168331 0.055773
C 2.942198 1.274215 1.036020
C 2.324586 1.075135 2.417765
N 4.399943 1.300181 1.122158
C 4.972975 2.505816 1.690947
C 6.494121 2.447044 1.666658
C 7.137864 3.688110 2.272314
C 8.640971 3.629661 2.270254
F 9.118107 3.571779 0.992507
F 9.157373 4.764102 2.821703
H 0.839247 -0.685443 -0.995749
H 0.618363 1.017222 -0.536678
H 0.486863 -0.264685 0.689888
H 3.055469 0.358207 -0.900977
H 2.931482 -0.791303 0.434455
H 2.556316 2.237528 0.629666
H 2.637836 0.106158 2.840416
H 1.225836 1.097388 2.370625
H 2.631991 1.866818 3.117326
H 4.777495 1.184879 0.182323
H 4.638354 2.611848 2.736282
H 4.633097 3.426303 1.165465
H 6.837126 2.330095 0.624594
H 6.823493 1.546101 2.211000
H 6.818079 3.815869 3.318647
H 6.839581 4.596205 1.722470
H 9.051620 2.767110 2.819491