27
H17 C8 N1 O1
C 3.276792 0.980160 2.003169
C 2.733781 -0.434425 2.153961
C 2.755787 -1.277117 0.877738
C 2.180608 -2.680635 1.088459
C 2.900277 -3.521721 0.039268
O 2.847034 -4.909354 0.223316
C 4.308268 -2.915991 0.078669
N 4.119518 -1.494427 0.351991
C 4.513987 -0.611922 -0.733872
C 6.022636 -0.454889 -0.847096
H 3.194440 1.536801 2.949665
H 2.724430 1.545779 1.234837
H 4.340204 0.969944 1.717369
H 1.691782 -0.392941 2.516744
H 3.314084 -0.971107 2.924767
H 2.145282 -0.759279 0.109561
H 1.085273 -2.709729 1.000449
H 2.451835 -3.058541 2.091173
H 2.452996 -3.329595 -0.950055
H 3.222944 -5.105317 1.091080
H 4.857621 -3.078434 -0.861825
H 4.886685 -3.417680 0.880465
H 4.068628 0.376788 -0.550950
H 4.102469 -0.958554 -1.708558
H 6.441217 -0.051354 0.088508
H 6.282800 0.230267 -1.669040
H 6.516369 -1.418835 -1.048313