27
H17 C8 N1 O1
C 3.477266 1.574506 -0.562921
C 3.265366 0.077324 -0.815659
C 2.961473 -0.189087 -2.286987
N 4.377986 -0.771732 -0.403879
C 4.708244 -0.805650 0.995913
C 5.763029 -1.842140 1.431850
C 6.287803 -0.827287 2.469256
C 7.785172 -0.720933 2.674882
O 8.355495 -1.905540 3.179652
C 5.572499 0.292264 1.684966
H 2.611325 2.159757 -0.911485
H 4.369563 1.934377 -1.102976
H 3.615876 1.790651 0.506569
H 2.390001 -0.243936 -0.222109
H 3.811095 0.119104 -2.920217
H 2.075307 0.372414 -2.619967
H 2.781759 -1.261022 -2.459076
H 5.208017 -0.542926 -0.951600
H 3.774609 -0.949923 1.565494
H 6.503625 -1.997659 0.629019
H 5.409913 -2.823581 1.782061
H 5.796220 -0.985382 3.445312
H 8.010918 0.149267 3.324180
H 8.273415 -0.529125 1.704579
H 7.946313 -2.085839 4.034158
H 6.251771 0.761670 0.953343
H 5.062368 1.082169 2.256542