23
H12 C7 O4
C 1.202594 0.041981 -0.078882
O 2.610253 0.105858 0.117285
C 3.019161 0.372844 1.350091
O 2.294774 0.562596 2.293886
O 4.345423 0.390200 1.339691
C 5.110534 0.651368 2.534712
C 4.842371 2.060033 3.052498
C 4.862033 -0.431041 3.585276
C 6.588711 0.541399 2.099386
C 6.901375 -0.010057 0.738757
O 7.447310 0.878724 2.881170
H 1.054377 -0.180984 -1.141574
H 0.727054 1.001712 0.169733
H 0.756289 -0.754465 0.533976
H 3.819813 2.141729 3.441117
H 4.983050 2.798384 2.248548
H 5.553190 2.283714 3.858683
H 3.831730 -0.377474 3.958312
H 5.554186 -0.280436 4.424889
H 5.039107 -1.430965 3.160468
H 6.420166 -0.989675 0.601313
H 7.988682 -0.098894 0.622798
H 6.491569 0.654039 -0.036932