37
H23 C12 N1 O1
C 0.618559 0.190946 -0.194160
C 1.769289 0.789426 0.115080
C 2.647479 1.521466 -0.859417
N 3.998429 0.984456 -0.890076
C 4.071179 -0.377855 -1.402309
C 4.525456 -1.363391 -0.338473
O 4.577356 -2.644399 -0.899336
C 4.975602 -3.630811 0.004105
C 4.973251 1.891879 -1.472441
C 6.413522 1.554717 -1.102587
C 7.407591 2.553440 -1.668713
C 7.406786 4.005626 -1.131872
C 8.948693 3.991744 -1.199762
C 8.893025 2.450098 -1.253137
H 0.012834 -0.313610 0.564603
H 0.236252 0.187139 -1.221309
H 2.134957 0.767433 1.149613
H 2.714106 2.573806 -0.535391
H 2.167930 1.525486 -1.863305
H 4.763308 -0.439630 -2.260610
H 3.086909 -0.706175 -1.778916
H 3.821162 -1.334287 0.518394
H 5.518330 -1.061676 0.053571
H 4.986779 -4.595535 -0.523432
H 4.281649 -3.711011 0.864178
H 5.990613 -3.441013 0.406114
H 4.748800 2.906546 -1.104945
H 4.882008 1.935600 -2.581978
H 6.674386 0.544292 -1.462352
H 6.498665 1.531281 -0.001744
H 7.331983 2.568416 -2.769839
H 7.047207 4.039022 -0.090067
H 6.870846 4.772035 -1.712314
H 9.501149 4.455251 -0.368701
H 9.317299 4.417882 -2.145533
H 8.991614 2.006247 -0.249165
H 9.582549 1.930169 -1.935806