26
H14 C9 O3
C 1.523172 0.444573 0.643890
C 2.578228 -0.026499 -0.028041
C 3.110530 -1.421562 0.136044
C 3.275121 0.831645 -1.046804
O 4.666844 0.893593 -0.710345
C 5.468388 1.448562 -1.607346
O 5.130506 1.904725 -2.669567
O 6.707283 1.418430 -1.136243
C 7.715983 1.982241 -1.963466
C 9.065301 1.857259 -1.314548
C 9.249626 1.276118 -0.126115
C 10.181002 2.446323 -2.131379
H 0.973361 -0.183811 1.351420
H 1.167997 1.470204 0.503233
H 2.514308 -1.999810 0.855633
H 4.154916 -1.400460 0.485280
H 3.109195 -1.953223 -0.830146
H 2.859151 1.849816 -1.072027
H 3.172913 0.392964 -2.053324
H 7.487327 3.044403 -2.156349
H 7.720938 1.474463 -2.942995
H 8.415870 0.857780 0.441996
H 10.250147 1.204446 0.310603
H 10.008488 3.519809 -2.315120
H 10.243199 1.960655 -3.119388
H 11.150487 2.332125 -1.627173