18
H12 C5 O1
C 2.594005 -2.316317 3.339717
C 2.331145 -1.730518 1.959097
C 3.040949 -0.403180 1.715315
C 2.690049 0.195034 0.357549
O 4.431115 -0.637768 1.836765
C 5.203791 0.492852 2.110054
H 2.076665 -3.279168 3.470791
H 2.242709 -1.636519 4.133306
H 3.670292 -2.482720 3.493342
H 1.249939 -1.573201 1.813118
H 2.653550 -2.441489 1.178300
H 2.729941 0.309316 2.508695
H 2.981348 -0.494629 -0.450779
H 3.201068 1.155461 0.192372
H 1.607317 0.378733 0.284479
H 6.246132 0.165728 2.237164
H 4.882719 0.997576 3.042649
H 5.179607 1.240899 1.295095