25
H15 C8 N1 O1
C 1.284063 -0.125309 0.610458
C 2.470442 -0.401521 0.070207
C 2.916206 0.033223 -1.305685
O 1.953983 0.826215 -1.961644
C 4.296046 0.701508 -1.238317
N 5.051888 0.746139 -2.486514
C 4.432750 0.707670 -3.798798
C 5.125269 1.933796 -3.316983
C 4.329011 3.182214 -3.013472
C 4.245099 4.111987 -4.219115
H 1.024273 -0.474104 1.613879
H 0.525289 0.446683 0.067422
H 3.200299 -0.994281 0.633847
H 3.020639 -0.877787 -1.922426
H 1.841645 1.638435 -1.449638
H 4.901485 0.139475 -0.508302
H 4.167839 1.712356 -0.809496
H 3.340634 0.763891 -3.858944
H 4.903924 0.041198 -4.530705
H 6.136190 2.142165 -3.695062
H 3.315600 2.899962 -2.691167
H 4.796383 3.713502 -2.165805
H 3.741748 3.617850 -5.065503
H 5.247473 4.418314 -4.559028
H 3.680791 5.025678 -3.978349