36
H23 C11 N1 O1
C 1.375467 -0.787845 -0.471472
C 2.456405 -0.172047 0.008046
C 2.950679 1.178848 -0.427455
N 4.376084 1.155041 -0.725891
C 4.628111 0.358678 -1.910755
C 5.068301 2.449663 -0.801396
C 4.561943 3.486489 0.206005
O 3.321439 4.069850 -0.107112
C 6.585539 2.250100 -0.584292
C 7.546796 2.999339 -1.534947
C 7.409924 2.465647 -2.967530
C 7.288453 4.511898 -1.529491
C 8.980161 2.742112 -1.049880
H 1.046207 -1.754916 -0.079616
H 0.774178 -0.344053 -1.273267
H 3.046973 -0.646088 0.802849
H 2.763465 1.879415 0.396214
H 2.342705 1.543882 -1.285332
H 4.205882 -0.650295 -1.794174
H 5.705367 0.245169 -2.092670
H 4.178792 0.807086 -2.825421
H 4.898956 2.895847 -1.808942
H 5.337345 4.264897 0.308531
H 4.460963 3.013441 1.197160
H 3.392999 4.457076 -0.987536
H 6.816799 1.176407 -0.647415
H 6.827749 2.535385 0.455197
H 6.393314 2.608945 -3.366137
H 7.641637 1.389186 -3.013550
H 8.106280 2.987035 -3.644311
H 6.278686 4.759880 -1.893937
H 8.009414 5.027211 -2.184931
H 7.397671 4.933945 -0.517197
H 9.206580 1.663435 -1.033680
H 9.131845 3.132762 -0.030399
H 9.715632 3.230166 -1.710008