34
H21 C9 N1 O3
C 2.538581 -0.304522 -1.403838
O 2.530954 0.074726 -0.050439
C 2.235359 1.409018 0.164378
C 2.009090 1.644556 1.651954
N 0.799179 1.025507 2.162272
C 1.011842 -0.321895 2.650148
C 0.061601 1.860712 3.090781
C -0.753421 2.954594 2.398994
C -1.854583 2.376426 1.520667
O -1.252321 3.771517 3.435381
C -1.816187 4.981300 3.023094
O 3.309091 2.189348 -0.296555
C 2.948680 3.435213 -0.827161
H 2.757170 -1.380045 -1.447167
H 3.309463 0.238909 -1.975201
H 1.556297 -0.122789 -1.879027
H 1.313962 1.690046 -0.394013
H 1.948857 2.734146 1.788386
H 2.916294 1.308081 2.195256
H 1.534945 -0.911312 1.886152
H 0.046399 -0.808511 2.858400
H 1.618698 -0.352859 3.582281
H 0.721460 2.345074 3.841451
H -0.640914 1.225134 3.653370
H -0.074608 3.559960 1.761799
H -2.607596 1.867019 2.143759
H -1.422362 1.641471 0.826783
H -2.359927 3.150897 0.924796
H -2.021351 5.579944 3.922605
H -2.769327 4.849531 2.477732
H -1.128466 5.557197 2.372651
H 3.868811 3.935250 -1.160321
H 2.454839 4.087067 -0.082309
H 2.271132 3.331790 -1.695918