27
H16 C8 N2 O1
C 0.952145 -1.705775 1.567115
O 2.218956 -1.840032 0.990289
C 2.980816 -0.647988 0.939156
C 2.588907 0.196577 -0.268422
C 4.464343 -1.005725 0.902692
N 4.976343 -1.571779 2.143004
C 4.754095 -3.002802 2.246729
C 6.348935 -1.200708 2.420361
C 6.673523 -1.323651 3.917412
C 8.028800 -0.879162 4.224241
N 9.104896 -0.521440 4.451116
H 0.470401 -2.694074 1.553045
H 0.302440 -1.001489 1.014614
H 1.012224 -1.362016 2.617948
H 2.805776 -0.068779 1.867340
H 2.820269 -0.339058 -1.202890
H 3.132392 1.153465 -0.270918
H 1.512783 0.424406 -0.261452
H 5.008165 -0.071996 0.697950
H 4.647635 -1.674936 0.034104
H 3.708789 -3.226828 2.006037
H 4.950997 -3.362041 3.268156
H 5.403425 -3.581008 1.552149
H 6.499219 -0.152228 2.125415
H 7.078024 -1.808750 1.841118
H 6.582866 -2.362862 4.267450
H 5.967042 -0.714651 4.501917