23
H15 C7 N1
C 0.899724 0.161992 -0.013202
C 2.421871 0.140247 0.064778
C 3.089929 0.404320 -1.282275
C 4.609708 0.583868 -1.244821
C 5.422744 -0.588016 -0.690575
C 6.768569 0.067207 -0.384279
C 6.360630 1.445577 0.157290
N 5.021062 1.701143 -0.387690
H 0.441808 -0.039993 0.967822
H 0.523287 -0.597316 -0.718549
H 0.531084 1.142438 -0.357272
H 2.749705 -0.835467 0.461123
H 2.773492 0.898716 0.783100
H 2.652752 1.318574 -1.723382
H 2.850280 -0.412841 -1.985907
H 4.940489 0.745201 -2.292652
H 5.489214 -1.424967 -1.401180
H 4.966286 -0.967323 0.238403
H 7.345855 0.179600 -1.316382
H 7.386442 -0.504796 0.323290
H 7.081283 2.227982 -0.132209
H 6.334041 1.433302 1.262593
H 4.973575 2.585840 -0.883424