30
H18 C9 N2 O1
C 2.089833 1.595176 -0.006370
C 2.864311 0.425114 -0.599932
N 2.720105 -0.832767 0.138774
C 2.221685 -1.967066 -0.629701
C 0.897585 -2.538074 -0.113008
C -0.215193 -1.501019 -0.088343
O 0.605319 -3.621283 -0.970695
C -0.300716 -4.555797 -0.462665
C 3.859453 -1.143374 0.994623
C 4.228482 -0.028103 1.977733
C 3.586714 -2.360330 1.786723
N 3.395514 -3.303686 2.426719
H 2.246684 2.500585 -0.614170
H 2.405645 1.820841 1.022229
H 1.010646 1.380280 0.009831
H 3.932767 0.694335 -0.700560
H 2.507163 0.260097 -1.627039
H 2.957196 -2.791415 -0.660130
H 2.060841 -1.669212 -1.678036
H 1.049957 -2.920409 0.915875
H -0.385326 -1.092721 -1.097972
H 0.059489 -0.675167 0.582735
H -1.159569 -1.930382 0.278105
H -0.379510 -5.377093 -1.189827
H -1.313232 -4.136656 -0.311817
H 0.040302 -4.977985 0.502864
H 4.763285 -1.385560 0.391615
H 3.370720 0.223091 2.618034
H 4.550352 0.871941 1.438529
H 5.064289 -0.354860 2.612365