29
H17 C9 N1 O2
C 1.156779 -0.130555 -0.477458
O 2.522897 0.040313 -0.119528
C 2.808624 0.079287 1.182252
O 1.973342 -0.025833 2.046401
C 4.305838 0.276323 1.401288
N 4.737109 0.309608 2.759050
C 4.379584 1.452747 3.576485
C 4.772809 1.004275 4.982564
C 4.215565 1.868694 6.102634
C 4.358299 -0.487335 4.983025
C 2.888732 -0.719252 5.331088
C 4.678123 -0.925264 3.539534
H 1.124297 -0.143212 -1.572995
H 0.543935 0.699667 -0.096713
H 0.762268 -1.077989 -0.081997
H 4.580839 1.212995 0.886232
H 4.819982 -0.527995 0.847730
H 3.296965 1.695320 3.538589
H 4.928546 2.355696 3.255571
H 5.875198 1.032544 5.036838
H 3.117863 1.942154 6.056550
H 4.617811 2.892265 6.040115
H 4.486383 1.465116 7.091288
H 4.978927 -1.046964 5.701067
H 2.226750 -0.198654 4.622260
H 2.651266 -0.383227 6.352004
H 2.649100 -1.793036 5.274327
H 3.903245 -1.617112 3.162980
H 5.642574 -1.464265 3.482788