30
H19 C9 N1 O1
C 1.168193 -0.234425 0.084283
C 2.294185 0.477895 0.130285
C 3.045880 0.982288 -1.068412
N 4.466248 0.674643 -1.006049
C 4.712520 -0.748448 -1.121576
C 5.225170 1.458965 -1.969651
C 6.734223 1.375519 -1.759401
C 7.584274 2.398338 -2.537751
C 7.354569 2.288684 -4.047093
C 7.337836 3.825205 -2.058859
O 8.955131 2.141105 -2.248444
H 0.648432 -0.542683 0.996392
H 0.719355 -0.532369 -0.870174
H 2.727563 0.752895 1.100483
H 2.944371 2.080937 -1.095725
H 2.571950 0.597168 -1.999937
H 4.101444 -1.299512 -0.391768
H 5.765135 -0.985524 -0.911127
H 4.467570 -1.144622 -2.133250
H 4.904232 2.507043 -1.862537
H 4.972700 1.158005 -3.011835
H 7.096830 0.371861 -2.041442
H 6.947989 1.501352 -0.684929
H 6.331930 2.580434 -4.329957
H 7.520190 1.254508 -4.392482
H 8.058758 2.945826 -4.580024
H 6.311525 4.154953 -2.274532
H 8.030825 4.513884 -2.565692
H 7.509541 3.901609 -0.974171
H 9.152370 1.246475 -2.551142