18
H10 C5 N1 O1 F1
O -1.899611 0.070106 0.806405
C -0.508447 0.064451 0.760104
C 0.215393 1.068077 -0.163052
N 1.067841 -0.030383 -0.625576
C 1.458181 -0.057104 -2.011582
C 2.398338 -1.215002 -2.277878
F 2.766112 -1.215524 -3.613972
C 0.097452 -1.019156 -0.137971
H -2.179022 0.731307 1.450264
H -0.062639 0.052252 1.769676
H 0.742542 1.926049 0.285767
H -0.484882 1.431915 -0.941911
H 1.978155 0.884739 -2.251576
H 0.582833 -0.136157 -2.694660
H 1.914486 -2.180696 -2.057595
H 3.307106 -1.125228 -1.661966
H 0.518810 -1.920908 0.334252
H -0.636678 -1.320827 -0.913108