31
H19 C10 N1 O1
C 2.514760 0.645903 -0.379932
C 1.227638 0.123551 0.243931
C 0.711059 -1.181651 -0.392888
C -0.780353 -1.176104 -0.078243
C -1.172611 0.286085 -0.377074
N -2.459310 0.797912 0.059080
C -2.841324 0.617552 1.450093
C -3.678011 -0.639744 1.688532
O -4.784794 -0.695781 0.816383
C -4.380155 -0.660333 -0.534098
C -3.596074 0.614545 -0.825824
C 0.030739 1.102246 0.155887
H 3.323258 -0.100313 -0.313517
H 2.863971 1.562586 0.121941
H 2.364593 0.884039 -1.446509
H 1.422592 -0.086606 1.309439
H 1.240205 -2.072265 -0.020133
H 0.860394 -1.146413 -1.486950
H -0.932236 -1.399644 0.991079
H -1.365119 -1.903985 -0.661232
H -1.172611 0.385395 -1.475138
H -3.441916 1.490037 1.770146
H -1.946665 0.591614 2.090529
H -4.074577 -0.642793 2.715311
H -3.055917 -1.547445 1.563027
H -5.292566 -0.704667 -1.148183
H -3.763580 -1.551153 -0.772286
H -4.288683 1.468745 -0.698214
H -3.257906 0.619997 -1.873079
H -0.203606 1.528052 1.143534
H 0.242876 1.954218 -0.509534