26
H15 C8 N1 O2
C 1.190629 0.163878 -0.313047
O 2.578708 0.200721 -0.006993
C 3.051535 1.333164 0.516605
O 2.364430 2.293527 0.752222
C 4.547753 1.223446 0.729888
N 5.103159 2.318975 1.480907
C 4.761631 2.254847 2.887509
C 6.530703 2.444224 1.278333
C 7.029859 2.789377 -0.139517
C 8.064625 3.735794 0.505339
C 7.209950 3.730670 1.790140
H 0.994467 -0.828518 -0.735096
H 0.928279 0.939296 -1.047661
H 0.584529 0.309444 0.593170
H 4.990435 1.201008 -0.279587
H 4.757418 0.226467 1.175297
H 3.669966 2.231003 3.013772
H 5.136700 3.147100 3.410529
H 5.188204 1.359126 3.391106
H 7.075982 1.553165 1.663903
H 6.255589 3.351194 -0.685126
H 7.397931 1.969302 -0.773380
H 8.238143 4.704873 0.015949
H 9.035046 3.239482 0.656174
H 6.487067 4.561380 1.795183
H 7.726070 3.692637 2.760582