30
H17 C9 N1 O1 F2
C 1.965747 0.194061 1.044273
C 2.375991 -0.039894 -0.203413
C 3.293135 0.843696 -0.996992
C 4.587152 0.135771 -1.405531
C 5.500112 1.015609 -2.246253
N 6.722078 0.310129 -2.605774
C 7.720810 1.065748 -3.342455
C 8.834010 1.558578 -2.369664
C 8.513488 2.912256 -1.737261
O 9.012309 0.574453 -1.387819
C 10.146877 1.631126 -3.143741
F 10.028479 2.487594 -4.197132
F 11.149138 2.113156 -2.364816
H 1.298979 -0.498876 1.566494
H 2.279380 1.090794 1.591081
H 2.038756 -0.954417 -0.710011
H 3.530537 1.752163 -0.418376
H 2.767709 1.176018 -1.910486
H 4.342336 -0.779857 -1.973208
H 5.133434 -0.190431 -0.504440
H 5.765702 1.916782 -1.672318
H 4.953835 1.367879 -3.145235
H 6.486319 -0.541446 -3.108484
H 7.290571 1.917325 -3.896931
H 8.177718 0.391709 -4.083142
H 7.581817 2.841169 -1.159002
H 8.392826 3.697183 -2.498498
H 9.318138 3.206190 -1.048484
H 8.141194 0.120886 -1.389903
H 10.452292 0.643117 -3.523809