34
H21 C10 N1 O2
C 1.912384 0.984675 0.505045
O 2.606202 -0.163777 0.117090
C 3.267420 -0.797036 1.173349
C 3.993640 -2.016118 0.623214
N 4.686475 -2.757114 1.660321
C 3.912483 -3.667064 2.486459
C 5.992263 -2.451584 1.920306
O 6.599917 -1.611196 1.268996
C 6.653146 -3.218058 3.053621
C 8.100393 -2.808556 3.286692
C 8.761163 -3.478109 4.498481
C 8.823921 -5.000447 4.366487
C 10.157219 -2.898697 4.726955
H 1.430787 1.411019 -0.386576
H 2.586521 1.749516 0.938240
H 1.127142 0.761800 1.254126
H 2.548716 -1.104385 1.961484
H 4.001155 -0.115771 1.650248
H 4.728172 -1.689106 -0.123417
H 3.269191 -2.680765 0.127923
H 2.942774 -3.842574 2.003415
H 3.721470 -3.263498 3.494676
H 4.409809 -4.642060 2.593665
H 6.579612 -4.294367 2.827353
H 6.062449 -3.069282 3.974196
H 8.141390 -1.714860 3.413685
H 8.693324 -3.027684 2.381629
H 8.147393 -3.240384 5.387311
H 9.384073 -5.291485 3.461179
H 7.823418 -5.455062 4.302068
H 9.333390 -5.451314 5.232996
H 10.814823 -3.109824 3.866479
H 10.630464 -3.331896 5.622502
H 10.122594 -1.805564 4.859650