24
H15 C7 N1 O1
C 1.361244 -0.041108 -0.890039
C 2.450061 0.104681 0.170938
C 2.743146 -1.106319 1.063779
C 2.634115 -2.502835 0.424143
C 2.616382 -3.458973 1.632344
O 3.798801 -4.206100 1.804053
C 2.331061 -2.506165 2.832916
N 1.946666 -1.207225 2.299447
C 0.511321 -1.055147 2.147526
H 1.216042 0.915886 -1.415043
H 0.389060 -0.337264 -0.470134
H 1.636329 -0.789407 -1.649488
H 2.226546 0.959743 0.831076
H 3.388466 0.367672 -0.343651
H 3.786850 -0.991964 1.411010
H 3.461738 -2.739885 -0.261014
H 1.696477 -2.591825 -0.145105
H 1.818368 -4.207480 1.524205
H 4.527559 -3.580823 1.906082
H 3.274117 -2.411868 3.402956
H 1.568866 -2.894019 3.523225
H 0.030444 -1.186352 3.128726
H 0.038127 -1.775707 1.446971
H 0.265582 -0.039656 1.804198