33
H21 C10 N1 O1
C 1.180636 0.353330 0.017991
C 2.685062 0.210317 -0.038156
O 3.164082 -0.154644 1.229489
C 4.551857 -0.314923 1.282433
C 4.950674 -0.705701 2.693098
N 6.385164 -0.894312 2.777884
C 6.882384 -1.319351 4.082820
C 6.562727 -2.787300 4.348187
C 8.382469 -1.069165 4.140498
C 8.898265 0.390329 4.113183
C 9.960953 -0.007471 5.159675
C 9.119841 -1.260221 5.484192
H 0.787098 0.639700 -0.968622
H 0.890198 1.127201 0.744993
H 0.710368 -0.596056 0.316727
H 3.149769 1.163582 -0.363890
H 2.970902 -0.553159 -0.790486
H 5.066977 0.625458 0.991284
H 4.893294 -1.097434 0.574561
H 4.436649 -1.646785 2.945483
H 4.568644 0.062093 3.399925
H 6.837510 -0.014293 2.533037
H 6.418442 -0.715377 4.896495
H 7.011470 -3.422838 3.567525
H 5.478837 -2.976623 4.360565
H 6.960468 -3.101515 5.325379
H 8.871205 -1.658776 3.345644
H 8.150379 1.081753 4.535314
H 9.249867 0.795641 3.152295
H 10.159360 0.699868 5.978605
H 10.918307 -0.272009 4.685393
H 8.442139 -1.084311 6.335533
H 9.650204 -2.210157 5.648476