27
H15 C8 N1 O1 F2
C 0.926920 -0.168669 -0.004156
C 2.444370 0.009676 -0.095814
C 2.886674 1.161084 -1.016956
C 2.840492 0.806349 -2.506190
O 1.521475 0.697042 -3.001048
C 3.584572 -0.503100 -2.746147
N 2.954502 -1.543091 -1.945109
C 3.244332 -2.891500 -2.379213
C 2.168810 -3.407696 -3.307444
F 2.104137 -2.660025 -4.446573
F 2.464158 -4.678233 -3.693495
C 3.138609 -1.291027 -0.521111
H 0.424694 0.790212 0.197312
H 0.670327 -0.860456 0.814117
H 0.497394 -0.581822 -0.928108
H 2.804410 0.245729 0.919334
H 3.929402 1.428883 -0.773959
H 2.274329 2.058650 -0.834658
H 3.331304 1.609271 -3.080035
H 1.252433 -0.212405 -2.810789
H 4.660539 -0.387864 -2.492245
H 3.515201 -0.768738 -3.809373
H 3.265301 -3.572847 -1.516119
H 4.222089 -2.984592 -2.890206
H 1.169402 -3.401133 -2.844870
H 4.221113 -1.231991 -0.271654
H 2.718350 -2.134478 0.047531