33
H21 C10 N1 O1
C 11.687530 0.120301 -1.292793
C 11.095863 -0.719789 -0.435748
C 11.571748 -0.964417 0.975202
C 12.760336 -0.142082 1.447617
C 9.862471 -1.497628 -0.844915
N 8.722275 -1.145969 -0.015724
C 7.565678 -2.027442 -0.075558
C 6.531315 -1.580124 0.949678
C 6.956669 -2.178100 -1.495516
C 6.520294 -0.862897 -2.115042
O 5.830869 -3.032988 -1.499808
C 6.096505 -4.380907 -1.239375
H 12.580732 0.693797 -1.029580
H 11.292964 0.260335 -2.304524
H 11.801714 -2.041832 1.067077
H 10.708079 -0.804161 1.641578
H 13.656836 -0.329971 0.835648
H 13.011534 -0.392961 2.489296
H 12.546592 0.937896 1.407347
H 10.058325 -2.575791 -0.700548
H 9.689167 -1.350588 -1.929382
H 8.443764 -0.182972 -0.198527
H 7.926283 -3.028925 0.219542
H 6.202694 -0.545138 0.760466
H 6.959003 -1.616142 1.962611
H 5.642492 -2.225985 0.917789
H 7.737140 -2.627599 -2.143243
H 5.724464 -0.386363 -1.522558
H 6.131074 -1.038777 -3.128600
H 7.364036 -0.161512 -2.191783
H 5.198425 -4.957490 -1.506149
H 6.322375 -4.581099 -0.175247
H 6.943342 -4.758628 -1.845103