27
H17 C8 N1 O1
C 0.860315 0.114443 -0.040190
C 2.377037 0.015678 0.069664
C 2.957711 1.065516 1.012924
N 4.410222 1.093319 1.051550
C 4.983118 -0.061033 1.727290
C 6.505111 -0.070528 1.624939
C 7.115689 1.220418 2.172521
O 7.038430 1.283950 3.584826
C 6.436094 2.419293 1.508220
C 4.916847 2.335370 1.614777
H 0.458241 -0.651164 -0.721100
H 0.548902 1.099669 -0.423885
H 0.378137 -0.027005 0.940882
H 2.840945 0.147960 -0.922270
H 2.648278 -0.997120 0.409332
H 2.530495 0.923478 2.033458
H 2.615237 2.057852 0.675270
H 4.585969 -0.983571 1.281125
H 4.674963 -0.081259 2.801319
H 6.790719 -0.180441 0.566106
H 6.912690 -0.933528 2.173724
H 8.192513 1.239807 1.943320
H 6.107841 1.269687 3.838541
H 6.717776 2.443720 0.442874
H 6.794638 3.351158 1.972048
H 4.461606 3.181564 1.077448
H 4.607775 2.446039 2.682760