33
H21 C10 N1 O1
C 2.735533 -3.043568 1.696981
O 2.668269 -2.136233 0.635908
C 3.302554 -0.893468 0.845063
C 2.851727 -0.010809 -0.316879
N 3.308847 1.356005 -0.167225
C 2.709507 2.375413 -1.043069
C 2.772151 1.991020 -2.530884
C 1.252647 2.612892 -0.629447
C 3.511299 3.660475 -0.816809
C 4.809249 -1.022968 0.935935
C 5.618715 0.046378 1.621943
C 5.481659 -1.307245 2.252713
H 2.047354 -3.871217 1.469938
H 2.420489 -2.584344 2.654397
H 3.746069 -3.467825 1.837554
H 2.934987 -0.438396 1.789414
H 3.182437 -0.495410 -1.258986
H 1.751706 -0.032121 -0.325197
H 4.319073 1.381271 -0.293337
H 2.164610 1.097769 -2.744202
H 3.810676 1.776891 -2.832887
H 2.394886 2.807990 -3.166063
H 0.626502 1.723811 -0.801020
H 0.815658 3.438911 -1.211551
H 1.194387 2.870828 0.439562
H 4.563962 3.523712 -1.115787
H 3.493648 3.944085 0.247119
H 3.099140 4.493438 -1.406302
H 5.260166 -1.482063 0.048450
H 5.070136 0.878290 2.071843
H 6.579442 0.322947 1.180063
H 4.842769 -1.390708 3.136956
H 6.347773 -1.974143 2.253078