29
H17 C8 N1 O3
C 1.192274 0.198229 0.139782
C 2.694422 0.161185 0.008766
O 3.256891 0.758166 1.183678
C 4.578490 0.807573 1.249517
O 5.342132 0.396512 0.412097
O 4.922559 1.385206 2.391852
C 6.323064 1.529067 2.639464
C 6.492343 2.187958 3.991351
C 7.966670 2.322846 4.358073
N 8.200162 3.117248 5.551407
C 7.685026 2.499581 6.755184
C 9.599830 3.456272 5.693860
H 0.736465 -0.254836 -0.752613
H 0.828483 1.232963 0.225886
H 0.858757 -0.366995 1.022806
H 3.036189 0.720149 -0.876282
H 3.066126 -0.871266 -0.082240
H 6.773122 2.135011 1.836845
H 6.799646 0.535853 2.616229
H 5.953305 1.587864 4.740846
H 6.031829 3.188996 3.976622
H 8.492027 2.814605 3.522539
H 8.417324 1.306687 4.453171
H 6.597532 2.349825 6.690988
H 7.876445 3.151526 7.621147
H 8.152344 1.510598 6.966564
H 9.956899 3.992098 4.800654
H 10.251933 2.564619 5.836205
H 9.743910 4.115419 6.563983