30
H18 C9 N1 O1 F1
C 1.185457 2.131020 0.756624
O 2.512439 1.747395 0.541245
C 2.720896 0.892339 -0.562817
C 2.315467 -0.543627 -0.249265
C 4.201574 0.963521 -0.953416
N 4.745108 2.221249 -1.405548
C 4.156502 2.840595 -2.574273
C 3.119187 3.919877 -2.237727
C 3.695936 4.944730 -1.276013
F 4.699981 5.664916 -1.949027
C 4.308652 4.286298 -0.053774
C 5.283286 3.171881 -0.453005
H 1.175218 2.861317 1.578875
H 0.535555 1.284000 1.044715
H 0.743758 2.609708 -0.139380
H 2.111068 1.251475 -1.417102
H 2.914959 -0.937417 0.587242
H 2.473255 -1.191378 -1.124864
H 1.252773 -0.613378 0.025932
H 4.350902 0.206937 -1.746039
H 4.794255 0.625947 -0.086271
H 3.703629 2.062924 -3.208192
H 4.956003 3.312374 -3.176574
H 2.236672 3.469069 -1.757656
H 2.775001 4.426566 -3.153398
H 2.932636 5.683965 -0.984772
H 3.492812 3.854014 0.541745
H 4.820108 5.047797 0.556583
H 5.620392 2.630624 0.443065
H 6.181898 3.644062 -0.895562