25
H15 C7 N1 O2
C 1.104801 2.716196 0.061739
C 2.620045 2.639643 -0.079676
C 3.129466 1.375606 -0.786945
C 2.768698 0.085165 -0.060446
N 4.570615 1.442252 -0.974098
C 5.156179 1.938304 -2.090181
O 4.540443 2.280880 -3.084198
C 6.671908 2.061332 -1.973515
O 7.240352 2.207113 -3.230967
C 8.626389 2.378284 -3.182632
H 0.799421 3.690316 0.473296
H 0.711871 1.938321 0.734394
H 0.608155 2.597024 -0.915191
H 3.097136 2.703870 0.914577
H 2.977741 3.509305 -0.655233
H 2.696015 1.352778 -1.798763
H 3.176176 0.083111 0.964604
H 3.176526 -0.785842 -0.595025
H 1.678804 -0.040316 0.008964
H 5.157396 1.216817 -0.176635
H 7.074338 1.174776 -1.442165
H 6.883585 2.938275 -1.324704
H 8.990604 2.486537 -4.214022
H 9.136992 1.510908 -2.719743
H 8.912603 3.283767 -2.612126