36
H23 C11 N1 O1
C 5.070100 -1.580826 -3.757900
C 4.950427 -0.163031 -3.207195
C 5.119932 -0.069888 -1.682593
C 6.501542 -0.531998 -1.200017
C 4.639521 1.283504 -1.083700
C 3.110987 1.261162 -0.981284
N 5.061454 2.479980 -1.836355
C 6.490114 2.603271 -2.128939
C 7.152388 3.110166 -0.839122
C 6.055757 3.995302 -0.210534
C 6.415370 5.474677 -0.164483
O 7.542749 5.756119 0.628310
C 4.817621 3.729707 -1.112338
H 4.863486 -1.601464 -4.839381
H 4.353720 -2.261912 -3.269122
H 6.078617 -1.997835 -3.610664
H 3.962733 0.241899 -3.480980
H 5.687852 0.482514 -3.710940
H 4.415028 -0.803926 -1.254441
H 7.337065 -0.022582 -1.702616
H 6.631947 -1.610958 -1.375357
H 6.611420 -0.367075 -0.116563
H 5.033192 1.316510 -0.043751
H 2.651542 1.181159 -1.979032
H 2.703697 2.161051 -0.500830
H 2.783567 0.399761 -0.380060
H 6.601757 3.364764 -2.920662
H 6.923591 1.679370 -2.520482
H 8.081640 3.668514 -1.026467
H 7.407128 2.264590 -0.182142
H 5.841532 3.666398 0.820737
H 5.532505 6.057335 0.167851
H 6.657865 5.820062 -1.184087
H 7.354512 5.450792 1.523686
H 4.726783 4.546985 -1.850315
H 3.880387 3.707663 -0.545082