23
H14 C7 O2
O 0.697264 -0.232430 -0.164426
C 2.082825 -0.167438 0.074844
C 2.810904 -0.710937 -1.139380
C 4.318820 -0.682343 -0.977142
O 4.902185 -1.174246 -2.156683
C 6.273886 -1.428281 -2.142787
C 7.299610 -0.405741 -1.606576
C 8.163705 -1.612453 -1.179589
C 6.894646 -2.492079 -1.210662
H 0.244591 0.114995 0.611556
H 2.364655 -0.757896 0.969511
H 2.409721 0.874224 0.265717
H 2.529771 -0.117968 -2.025169
H 2.484569 -1.747437 -1.324298
H 4.611275 -1.290583 -0.100171
H 4.653706 0.353499 -0.774675
H 6.527605 -1.677654 -3.185175
H 6.918198 0.128307 -0.723245
H 7.717340 0.325414 -2.314670
H 8.701792 -1.534674 -0.224303
H 8.878666 -1.900584 -1.965004
H 6.404624 -2.509141 -0.225289
H 6.970861 -3.521803 -1.590434