30
H17 C8 N1 O2 F2
C 1.354969 0.838196 -0.401973
O 2.538162 0.112956 -0.238980
C 2.684542 -0.549271 1.003475
C 1.737231 -1.738742 1.102379
C 4.176116 -0.900079 1.086265
N 4.687762 -1.134864 2.426943
C 4.416116 -2.450958 2.989677
C 3.529812 -2.401454 4.234079
O 3.236562 -3.684108 4.727270
C 6.030381 -0.645486 2.644420
C 6.283154 -0.179699 4.061030
F 6.388199 -1.231085 4.924608
F 7.479069 0.467778 4.110530
H 1.449003 1.426869 -1.326166
H 1.181319 1.537677 0.439250
H 0.460531 0.195157 -0.499981
H 2.468641 0.162884 1.826510
H 1.951391 -2.461096 0.298503
H 0.688532 -1.419200 1.010910
H 1.829189 -2.254827 2.066841
H 4.695233 -0.026365 0.670231
H 4.386242 -1.751980 0.405339
H 5.356328 -2.967616 3.252021
H 3.922127 -3.083919 2.231413
H 2.612888 -1.823856 4.006906
H 4.052683 -1.863035 5.037584
H 2.716543 -4.145801 4.058733
H 6.194737 0.240430 2.015991
H 6.820836 -1.383626 2.390609
H 5.496463 0.493680 4.436115