31
H19 C9 N1 O2
C 0.719076 -0.449833 -0.438885
O 2.104381 -0.363614 -0.257435
C 2.829209 -1.288257 -1.020396
C 4.317042 -1.169485 -0.715381
C 4.655941 -1.372510 0.764011
N 4.336110 -0.200678 1.552690
C 4.568968 -0.364357 2.971339
C 4.421594 0.929688 3.749699
C 4.940957 2.228185 3.203450
C 3.456304 2.006731 3.335416
O 4.938302 -2.148457 -1.514049
C 6.244893 -1.840329 -1.910670
H 0.246218 0.313810 0.194083
H 0.328227 -1.443377 -0.147461
H 0.433078 -0.262993 -1.491362
H 2.670508 -1.117718 -2.103292
H 2.502524 -2.324879 -0.798569
H 4.658631 -0.156203 -1.005474
H 5.738713 -1.569792 0.845648
H 4.142713 -2.294651 1.117790
H 3.358138 0.029640 1.383778
H 5.598190 -0.740752 3.111523
H 3.902527 -1.131343 3.424553
H 4.531544 0.789334 4.830120
H 5.353958 2.205420 2.191167
H 5.427547 2.926637 3.889979
H 2.884902 1.871517 2.412181
H 2.918434 2.543940 4.121518
H 6.624445 -2.687172 -2.499996
H 6.925948 -1.686526 -1.053003
H 6.278047 -0.931407 -2.541273