30
H19 C9 N1 O1
C 1.490597 -0.343545 1.078426
C 2.881255 -0.493213 0.502490
O 2.795317 -0.364377 -0.898791
C 3.975138 -0.466779 -1.639106
C 5.185225 0.387560 -1.200716
N 5.798038 -0.804818 -0.607435
C 7.230838 -0.956371 -0.721518
C 7.846177 -1.981986 0.235300
C 7.257091 -3.381197 0.061020
C 9.364880 -2.002051 0.067165
C 4.894660 -1.677144 -1.369035
H 1.519353 -0.439557 2.174116
H 0.818264 -1.118670 0.679703
H 1.068886 0.641850 0.827443
H 3.302756 -1.475890 0.783982
H 3.551344 0.275563 0.929378
H 3.673893 -0.337603 -2.686823
H 4.999461 1.227463 -0.509501
H 5.737671 0.771586 -2.081105
H 7.681504 0.027222 -0.507145
H 7.521069 -1.213466 -1.768126
H 7.614318 -1.641440 1.260228
H 7.371186 -3.733298 -0.978615
H 6.187021 -3.407390 0.313160
H 7.767527 -4.104872 0.716408
H 9.645486 -2.345956 -0.942946
H 9.836097 -2.683309 0.792815
H 9.801957 -1.001185 0.212904
H 4.457303 -2.527722 -0.821579
H 5.349127 -2.059435 -2.304988