28
H19 C8 N1
C 0.900911 0.002166 0.044014
C 2.422436 -0.044405 -0.028720
C 2.946973 -0.728064 -1.289176
C 4.469402 -0.776275 -1.368174
C 4.989894 -1.460952 -2.624750
N 6.439734 -1.452679 -2.676442
C 6.992700 -2.111558 -3.844423
C 8.515879 -2.088500 -3.835561
C 9.130782 -2.742106 -5.066305
H 0.555113 0.500888 0.962821
H 0.469880 -1.012396 0.032631
H 0.477245 0.550970 -0.813039
H 2.818611 -0.568754 0.858652
H 2.826197 0.982127 0.020261
H 2.551529 -0.203708 -2.177997
H 2.544145 -1.755956 -1.338902
H 4.865150 -1.303984 -0.481067
H 4.881533 0.246898 -1.328191
H 4.607837 -0.929438 -3.515103
H 4.568318 -2.490069 -2.682523
H 6.800817 -1.910438 -1.839346
H 6.625605 -1.587224 -4.745477
H 6.643977 -3.164724 -3.944182
H 8.875465 -2.600849 -2.925375
H 8.849877 -1.040572 -3.752708
H 8.829351 -3.798806 -5.152029
H 10.230455 -2.712112 -5.028542
H 8.814783 -2.230661 -5.990107