15
H9 C4 N1 O1
O 1.002405 -0.024513 0.004857
C 2.406186 -0.087453 0.010889
C 2.935778 1.119685 -0.740246
N 4.385491 1.123571 -0.741318
C 5.039566 0.429555 -1.833768
C 5.036874 1.913743 -1.763463
H 0.665396 -0.792735 0.477772
H 2.776720 -1.010230 -0.478100
H 2.817707 -0.077467 1.038670
H 2.580674 2.036480 -0.241650
H 2.512357 1.119190 -1.766864
H 4.399315 -0.035268 -2.594375
H 5.940523 -0.138433 -1.580030
H 4.396920 2.446032 -2.478345
H 5.936231 2.458412 -1.457379