33
H22 C9 N2
C 0.932773 -0.471863 -0.022372
C 2.426071 -0.145542 -0.049643
C 2.662738 1.246962 -0.635786
C 3.034646 -0.306413 1.350127
C 4.550253 -0.138582 1.423701
C 5.090155 -0.395764 2.826908
N 6.543094 -0.411421 2.912599
C 7.128384 0.878038 2.603006
C 7.010625 -0.931747 4.187136
C 8.414354 -1.526162 4.126987
N 8.781235 -2.069302 5.428767
H 0.489306 -0.409302 -1.028913
H 0.388359 0.235444 0.626460
H 0.748995 -1.487345 0.363551
H 2.920306 -0.879987 -0.712387
H 2.237263 2.025437 0.020852
H 2.184148 1.345841 -1.623173
H 3.733027 1.467311 -0.767272
H 2.768284 -1.307401 1.733497
H 2.552115 0.418247 2.032793
H 4.824222 0.876055 1.095114
H 5.040686 -0.840053 0.725837
H 4.725789 -1.380198 3.163424
H 4.652371 0.354290 3.527903
H 6.919571 1.170564 1.563995
H 8.221294 0.842001 2.711324
H 6.749884 1.687776 3.267733
H 6.330109 -1.733958 4.512134
H 6.975356 -0.153237 4.984990
H 9.131030 -0.770175 3.750090
H 8.406475 -2.343962 3.387802
H 8.915293 -1.302031 6.088405
H 9.690036 -2.525857 5.364644