38
H25 C11 N1 O1
C 1.176978 -0.565872 -0.968310
C 2.665524 -0.374055 -0.705012
C 3.183021 -1.249655 0.436734
C 4.672212 -1.054434 0.784850
C 4.897190 -0.021373 1.899563
C 4.391419 1.393844 1.636885
C 4.793102 2.372030 2.735482
N 5.294530 -2.327188 1.177300
C 6.501699 -2.702976 0.454008
C 7.668828 -1.771672 0.757494
C 6.839873 -4.140852 0.831848
O 7.939561 -4.579561 0.088833
C 8.342208 -5.877937 0.408372
H 0.833743 0.052641 -1.812094
H 0.577590 -0.288703 -0.085645
H 0.945662 -1.616780 -1.208192
H 2.864978 0.687752 -0.492751
H 3.236603 -0.612044 -1.619212
H 3.024472 -2.302279 0.143804
H 2.565349 -1.090535 1.339428
H 5.171579 -0.681557 -0.132147
H 5.979821 0.021090 2.105071
H 4.431010 -0.416566 2.820407
H 3.292584 1.389697 1.543794
H 4.780942 1.749669 0.666588
H 4.400903 2.052363 3.714910
H 4.408444 3.384483 2.536639
H 5.889442 2.442405 2.826079
H 4.612938 -3.074069 1.071040
H 6.336883 -2.690527 -0.646787
H 7.868239 -1.747320 1.841507
H 7.467205 -0.743890 0.420260
H 8.573348 -2.125305 0.242596
H 5.959166 -4.789672 0.639147
H 7.047323 -4.194249 1.921244
H 9.205132 -6.133507 -0.223033
H 7.540017 -6.618782 0.221282
H 8.645421 -5.968317 1.469950