27
H17 C8 N1 O1
C 1.380909 -0.834048 -0.039914
C 2.411058 0.017246 0.039356
C 2.790001 0.690277 1.331492
C 3.250981 0.350504 -1.170438
C 4.718856 -0.057915 -1.044865
N 5.428914 0.198123 -2.285127
C 6.836467 -0.138953 -2.233417
C 7.515431 -0.059169 -3.601875
C 7.460825 1.332343 -4.217527
O 8.845246 -0.528793 -3.506483
H 0.766117 -1.070482 0.834791
H 1.115574 -1.322012 -0.983491
H 2.056919 0.489371 2.125967
H 2.868133 1.781772 1.195098
H 3.775761 0.345710 1.685295
H 3.207304 1.441891 -1.344878
H 2.833335 -0.135175 -2.066014
H 4.776480 -1.138402 -0.824451
H 5.184255 0.460993 -0.179973
H 5.324762 1.185103 -2.517991
H 6.937084 -1.176053 -1.873107
H 7.410268 0.497021 -1.519353
H 6.998136 -0.764174 -4.273698
H 7.922568 2.075203 -3.544246
H 6.424452 1.645630 -4.416091
H 8.007220 1.344527 -5.172430
H 9.334356 0.096554 -2.957040