32
H21 C9 N1 O1
C 10.372719 -1.929331 -4.605536
C 10.187629 -0.594103 -3.894554
C 8.732936 -0.295364 -3.543770
C 8.543627 1.037053 -2.832012
N 7.136984 1.285478 -2.560635
C 6.823214 2.479246 -1.784701
C 5.348503 2.416432 -1.366335
C 4.950188 3.398638 -0.271620
C 7.106755 3.749960 -2.579931
O 8.475240 4.060624 -2.555092
C 8.798025 5.179761 -3.324772
H 11.430910 -2.115397 -4.846452
H 9.804648 -1.960055 -5.549669
H 10.020701 -2.766210 -3.980342
H 10.580689 0.219468 -4.529070
H 10.794683 -0.580541 -2.972401
H 8.336458 -1.107716 -2.906566
H 8.118307 -0.295730 -4.461055
H 8.937678 1.849936 -3.460541
H 9.158711 1.050095 -1.904292
H 6.764780 0.478968 -2.060986
H 7.443690 2.542760 -0.861959
H 4.718527 2.561573 -2.261320
H 5.142501 1.392357 -1.011408
H 5.084607 4.446959 -0.579896
H 5.548027 3.240421 0.640428
H 3.890713 3.271369 -0.001695
H 6.529676 4.597499 -2.160715
H 6.755579 3.598455 -3.621853
H 9.878612 5.359717 -3.231137
H 8.261108 6.086528 -2.982095
H 8.559155 5.030359 -4.396188