39
H25 C12 N1 O1
C 1.094565 0.725382 2.607987
C 1.929719 -0.539487 2.443857
C 3.201010 -0.367732 1.604604
C 2.872412 -0.093955 0.144494
O 4.069580 0.060805 -0.570705
C 3.881385 0.238989 -1.943945
N 4.029184 -1.565745 1.666096
C 4.906757 -1.691305 2.829745
C 5.289943 -3.157846 3.005718
C 6.136246 -0.772370 2.735374
C 6.997146 -0.730945 3.995659
C 8.079999 0.335284 4.034204
C 8.750283 0.871707 2.798219
C 7.839390 1.757434 3.607827
H 0.252443 0.551710 3.295261
H 0.669848 1.072776 1.653459
H 1.697688 1.549098 3.023809
H 1.323782 -1.347554 1.998468
H 2.229565 -0.899547 3.441323
H 3.742031 0.526732 1.982849
H 2.285749 -0.943314 -0.264922
H 2.248066 0.814773 0.053207
H 4.869868 0.347098 -2.412587
H 3.287713 1.147240 -2.164895
H 3.365728 -0.625143 -2.406322
H 4.608574 -1.586882 0.827372
H 4.323902 -1.385017 3.716251
H 5.884497 -3.505999 2.143849
H 4.385571 -3.781708 3.066215
H 5.884795 -3.324631 3.916189
H 5.782648 0.244105 2.496583
H 6.743133 -1.100469 1.872483
H 7.480788 -1.711478 4.140333
H 6.340086 -0.586846 4.872667
H 8.741214 0.231264 4.901354
H 8.387229 0.533805 1.823498
H 9.826618 1.061897 2.834519
H 6.867214 2.014204 3.176176
H 8.288242 2.555561 4.205743