31
H19 C9 N1 O2
C 1.206372 0.696839 -0.662928
O 2.550559 0.332161 -0.604062
C 2.746167 -1.052141 -0.666661
C 4.228599 -1.384717 -0.465347
C 4.595043 -1.539462 1.014669
O 4.285153 -0.370271 1.714632
C 4.550928 -0.462679 3.081203
N 4.607165 -2.525070 -1.290656
C 4.077184 -3.835389 -0.926914
C 5.182344 -4.561931 -0.129459
C 6.491143 -3.874875 -0.575745
C 6.030700 -2.737897 -1.521307
H 1.147298 1.794606 -0.636729
H 0.628223 0.295915 0.193601
H 0.717443 0.343521 -1.593212
H 2.438268 -1.438870 -1.659076
H 2.120099 -1.566606 0.092123
H 4.780514 -0.514155 -0.854961
H 5.676378 -1.768134 1.107495
H 4.043941 -2.401056 1.446304
H 4.283903 0.496275 3.548373
H 5.621655 -0.664104 3.284491
H 3.959746 -1.264713 3.566411
H 3.857152 -4.402629 -1.849086
H 3.131203 -3.745961 -0.372814
H 5.181539 -5.643151 -0.331888
H 5.025470 -4.434659 0.951960
H 7.169532 -4.568818 -1.093589
H 7.039572 -3.473207 0.289156
H 6.183454 -3.051544 -2.569680
H 6.591395 -1.802508 -1.379072