36
H23 C11 N1 O1
C 4.708211 -4.045123 0.053045
O 4.408838 -2.906906 -0.698740
C 5.212466 -1.803851 -0.381466
C 4.772029 -0.567058 -1.158202
C 3.294067 -0.273339 -0.933391
N 5.029176 -0.689336 -2.587014
C 6.416333 -0.617917 -3.019784
C 6.893662 -1.848943 -3.774786
C 5.972072 -2.597350 -4.701164
C 6.421944 -3.223055 -3.406918
C 7.381548 -4.398053 -3.394196
C 6.620243 -5.718067 -3.514021
C 8.260549 -4.374468 -2.143616
H 4.054882 -4.861422 -0.286971
H 4.532336 -3.881877 1.134498
H 5.761131 -4.362655 -0.073416
H 6.278138 -2.029660 -0.591959
H 5.144566 -1.578520 0.702571
H 5.359279 0.269707 -0.718397
H 2.676586 -1.084932 -1.344930
H 3.005117 0.669629 -1.424096
H 3.072144 -0.178742 0.140228
H 4.472786 -0.002346 -3.084873
H 7.078913 -0.464235 -2.148108
H 6.566486 0.266166 -3.665130
H 7.938524 -1.779513 -4.101120
H 6.385581 -2.989290 -5.635994
H 4.935084 -2.253467 -4.757906
H 5.653011 -3.250295 -2.625284
H 8.042627 -4.301149 -4.274852
H 5.940360 -5.852714 -2.655380
H 7.305264 -6.580840 -3.538162
H 6.009439 -5.744914 -4.430470
H 7.647174 -4.465524 -1.231912
H 8.828279 -3.433168 -2.071328
H 8.983564 -5.206124 -2.143043