33
H21 C10 N1 O1
C 1.375645 -0.264260 0.663558
C 2.719712 0.042281 0.011072
C 3.147656 1.505408 0.029754
C 3.213659 2.325650 1.338611
C 2.799519 3.572278 0.528788
C 2.219355 2.619357 -0.535993
N 2.191033 3.019707 -1.921656
C 3.449701 3.141470 -2.643852
C 3.839072 1.876797 -3.406459
C 3.347592 4.348176 -3.572126
O 4.561080 4.549122 -4.239274
C 4.533399 5.620330 -5.133830
H 1.155411 -1.341948 0.614177
H 0.546779 0.261503 0.163599
H 1.360605 0.024863 1.726425
H 2.695212 -0.293135 -1.041050
H 3.505292 -0.561209 0.498990
H 4.128652 1.590648 -0.466961
H 4.175973 2.354556 1.870850
H 2.426361 2.030703 2.049842
H 3.682679 4.107411 0.145227
H 2.115433 4.300277 0.990967
H 1.180685 2.384189 -0.252713
H 1.537641 2.446036 -2.449082
H 4.244550 3.370630 -1.914382
H 3.057065 1.619212 -4.141362
H 3.958219 1.022575 -2.723380
H 4.782093 2.020864 -3.953441
H 3.073658 5.238130 -2.970160
H 2.521969 4.184791 -4.298793
H 5.524420 5.701450 -5.603162
H 4.307348 6.579040 -4.626570
H 3.778953 5.474619 -5.932102