27
H17 C8 N1 O1
C 1.098190 -0.020417 -0.197815
C 2.306922 -0.384307 0.230825
C 3.071831 0.291015 1.333507
N 4.441678 0.598071 0.949653
C 4.490506 1.601192 -0.097372
C 5.276069 0.921551 2.094694
C 6.778114 0.711257 1.885746
O 7.351111 1.650670 0.992425
C 7.521346 0.704596 3.224262
C 9.021922 0.491243 3.079776
H 0.578217 -0.576764 -0.983449
H 0.579502 0.847358 0.225430
H 2.808474 -1.250715 -0.219400
H 3.108328 -0.400869 2.192332
H 2.517131 1.194590 1.675070
H 3.906832 1.272719 -0.970325
H 5.527152 1.765117 -0.413452
H 4.074081 2.579318 0.236346
H 4.972911 0.266420 2.925429
H 5.109968 1.967733 2.447247
H 6.910821 -0.268694 1.396420
H 7.225127 2.529069 1.374873
H 7.088850 -0.082718 3.863149
H 7.325354 1.663422 3.739160
H 9.239860 -0.482069 2.610670
H 9.523836 0.512485 4.059091
H 9.470809 1.271928 2.448338