37
H23 C12 N1 O1
C 1.996378 1.074803 -1.127028
C 2.265559 0.162698 -0.191083
C 3.135683 0.380627 1.011700
C 4.360326 -0.539140 1.034012
C 5.228742 -0.352718 2.273351
C 6.446603 -1.270019 2.294708
N 7.295957 -1.056918 3.471342
C 7.652113 -2.313615 4.153599
C 8.659136 -2.160066 5.293209
C 6.391605 -2.964578 4.731509
C 8.313723 -0.074722 3.173140
C 9.048440 0.704557 4.280543
O 10.325296 0.240968 3.828319
C 9.745448 -0.474612 2.732120
H 1.358483 0.843086 -1.985494
H 2.401884 2.091532 -1.068148
H 1.839639 -0.844601 -0.295357
H 2.540369 0.195148 1.924014
H 3.460074 1.434143 1.053410
H 4.964472 -0.355967 0.127894
H 4.027744 -1.590889 0.972941
H 4.633569 -0.541656 3.183537
H 5.561883 0.698413 2.334727
H 7.028364 -1.136256 1.361104
H 6.102597 -2.313207 2.266492
H 8.097725 -3.021066 3.419667
H 8.244886 -1.541356 6.104780
H 9.619562 -1.728333 4.984579
H 8.867694 -3.156556 5.710356
H 5.937823 -2.297225 5.482111
H 6.647336 -3.915186 5.224043
H 5.629377 -3.186058 3.971660
H 7.865148 0.628449 2.459788
H 8.829713 0.417906 5.319330
H 8.956048 1.801454 4.194386
H 9.978704 -1.552376 2.761134
H 10.067391 -0.071253 1.756603