24
H15 C7 N1 O1
C 1.009123 0.218421 -0.564793
N 2.240923 -0.063380 0.143912
C 2.192471 0.352886 1.533507
C 2.582173 1.818307 1.708617
O 2.560378 2.218245 3.056558
C 2.727337 -1.401118 -0.103584
C 4.150618 -1.804765 0.330709
C 3.612321 -3.229667 0.588061
C 2.183038 -2.649619 0.649464
H 0.712691 1.268442 -0.422876
H 0.158738 -0.415009 -0.229329
H 1.143827 0.056594 -1.645693
H 2.893179 -0.245230 2.134008
H 1.186198 0.187953 1.978006
H 1.935996 2.464424 1.083371
H 3.613600 1.953264 1.346556
H 1.648038 2.165795 3.364777
H 2.631300 -1.580433 -1.186783
H 4.448618 -1.316168 1.270788
H 4.958879 -1.672376 -0.404529
H 3.983856 -3.754798 1.479985
H 3.750923 -3.883185 -0.286715
H 1.897357 -2.401675 1.683719
H 1.367098 -3.221958 0.182665