32
H20 C9 N1 O1 F1
C 0.979950 -0.235342 0.360504
C 2.472455 -0.258020 0.053820
C 2.870317 -0.883539 -1.285858
C 2.291599 -0.142633 -2.499928
O 0.911619 -0.330769 -2.695297
N 4.324379 -0.890502 -1.397407
C 4.878690 -1.961305 -2.207004
C 6.392670 -1.846294 -2.317625
C 7.017190 -2.942536 -3.174230
C 8.534904 -2.827465 -3.279933
C 9.133240 -3.919318 -4.137029
F 10.513808 -3.776118 -4.203521
H 0.800434 0.175107 1.366364
H 0.553985 -1.251711 0.334679
H 0.422410 0.371317 -0.365574
H 2.992022 -0.819056 0.850803
H 2.880197 0.768195 0.084884
H 2.465996 -1.922756 -1.310905
H 2.860506 -0.441245 -3.401107
H 2.453887 0.939875 -2.367886
H 0.750450 -1.279000 -2.767730
H 4.731293 -0.946582 -0.465666
H 4.440307 -1.909872 -3.218171
H 4.612637 -2.966790 -1.811567
H 6.832067 -1.878172 -1.304165
H 6.642263 -0.855126 -2.733108
H 6.575848 -2.910072 -4.186143
H 6.753106 -3.929934 -2.755869
H 8.987499 -2.877494 -2.275207
H 8.809514 -1.849132 -3.709083
H 8.740388 -3.879191 -5.166426
H 8.917801 -4.917170 -3.720387