23
H15 C6 N1 O1
C 0.952518 0.058951 0.053933
C 2.471622 0.059795 0.039092
N 2.993344 1.301814 -0.503930
C 4.439221 1.379213 -0.510273
C 4.904077 2.665568 -1.167217
O 6.301689 2.698751 -1.164840
C 6.841124 3.853682 -1.751881
C 8.350812 3.782429 -1.699776
H 0.562980 -0.898061 0.432395
H 0.553122 0.220848 -0.959437
H 0.563277 0.859907 0.703912
H 2.836248 -0.770895 -0.590132
H 2.851936 -0.144757 1.064117
H 2.620756 2.079515 0.041146
H 4.840144 0.527107 -1.085323
H 4.889721 1.313473 0.503839
H 4.489861 3.538979 -0.619679
H 4.502742 2.717533 -2.199826
H 6.480559 4.758381 -1.220496
H 6.496717 3.946721 -2.802265
H 8.701596 3.715158 -0.658536
H 8.791682 4.680933 -2.156542
H 8.717570 2.900033 -2.246220