24
H14 C7 N1 O1 F1
O -2.045990 0.287199 0.464164
C -1.003765 -0.154301 -0.382317
C -0.171420 -1.264967 0.267805
C 1.224800 -1.287772 -0.342486
C 1.964488 0.020313 -0.026688
N 1.028766 1.124785 0.178015
C 1.667251 2.420224 0.177393
C 2.612119 2.600830 1.351411
F 3.058611 3.913805 1.366199
C -0.111112 1.046065 -0.717763
H -2.566123 -0.485263 0.715012
H -1.427702 -0.533061 -1.333059
H -0.675171 -2.238176 0.157704
H -0.103594 -1.045163 1.345687
H 1.136073 -1.422951 -1.433358
H 1.808705 -2.142258 0.029220
H 2.682661 0.252968 -0.844286
H 2.561411 -0.111089 0.890535
H 0.890053 3.196276 0.260921
H 2.226389 2.618058 -0.765968
H 3.497336 1.949889 1.284574
H 2.086880 2.395058 2.298041
H 0.206317 0.993059 -1.782224
H -0.718523 1.956323 -0.611622