21
H13 C6 N1 O1
C 2.951848 0.377748 1.415189
C 2.454598 -0.024467 0.037363
C 2.930112 0.945996 -1.044519
O 2.517737 0.540821 -2.326955
C 2.982273 -0.752465 -2.673487
C 2.500353 -1.062059 -4.074405
C 2.506127 -1.769049 -1.634809
N 2.854681 -1.397174 -0.270801
H 2.602392 1.385517 1.685916
H 4.054394 0.380950 1.448109
H 2.591512 -0.331503 2.175124
H 1.348987 -0.001266 0.029895
H 4.038692 1.018110 -1.001187
H 2.519031 1.953827 -0.877943
H 4.094097 -0.746657 -2.656694
H 1.399500 -1.076344 -4.108685
H 2.871997 -2.044087 -4.403191
H 2.858144 -0.300203 -4.782711
H 2.927243 -2.761178 -1.861925
H 1.406450 -1.852396 -1.708934
H 3.867192 -1.471062 -0.156480