13
H8 C3 O2
C 0.948436 0.062318 -0.128701
C 2.460629 -0.098042 -0.067941
C 2.936566 -1.002936 1.057675
O 2.424953 -2.273677 0.844073
O 4.340594 -1.101520 1.089349
H 0.654012 0.735947 -0.947544
H 0.553886 0.485259 0.809750
H 0.456854 -0.908134 -0.292038
H 2.942849 0.883940 0.068644
H 2.849562 -0.518661 -1.010381
H 2.578258 -0.598191 2.030602
H 2.672301 -2.821037 1.599430
H 4.689871 -0.295295 1.487420