33
H21 C9 N1 O2
C 2.891328 -3.814909 -6.779393
O 4.163199 -4.321571 -6.493640
C 5.212370 -3.482102 -6.899254
C 6.519016 -4.201080 -6.607526
O 6.586953 -5.396982 -7.352448
C 6.733275 -4.498270 -5.121060
N 6.692786 -3.301590 -4.303639
C 7.176038 -3.455963 -2.926160
C 6.124887 -2.922899 -1.955502
C 8.551661 -2.775223 -2.743085
C 9.107517 -2.959358 -1.330177
C 9.565304 -3.264843 -3.776449
H 2.146875 -4.540993 -6.423489
H 2.743426 -3.661558 -7.865748
H 2.711790 -2.848709 -6.270131
H 5.174465 -2.505676 -6.377081
H 5.147963 -3.276349 -7.986133
H 7.339321 -3.552141 -6.955752
H 5.745313 -5.847940 -7.203995
H 7.723382 -4.968303 -5.027150
H 5.990285 -5.262183 -4.806925
H 5.738398 -2.952265 -4.279564
H 7.314898 -4.534663 -2.706648
H 5.972270 -1.840376 -2.104144
H 6.407490 -3.085225 -0.906378
H 5.160889 -3.429587 -2.120782
H 8.389102 -1.695041 -2.917656
H 9.181541 -4.030415 -1.073826
H 8.485960 -2.472500 -0.564297
H 10.118967 -2.530790 -1.250289
H 9.763743 -4.343946 -3.657326
H 10.525514 -2.736759 -3.663939
H 9.205992 -3.093366 -4.801496