33
H21 C10 N1 O1
C 3.019478 1.178190 -1.108055
C 2.677714 0.093111 -0.086242
C 1.205334 -0.286673 -0.207829
O 0.382295 0.819362 0.078532
N 3.075593 0.518089 1.262625
C 2.329101 -0.068995 2.354403
C 4.511559 0.398600 1.470920
C 5.069514 1.349386 2.523592
C 6.595584 1.306721 2.654056
C 6.911928 2.566127 3.463397
C 5.916025 3.625400 2.942064
C 4.782191 2.834295 2.244432
H 4.083544 1.452343 -1.080055
H 2.425226 2.080431 -0.902546
H 2.793139 0.835105 -2.129799
H 3.224045 -0.837653 -0.362809
H 1.050215 -0.643460 -1.243903
H 0.976655 -1.141469 0.454289
H -0.534029 0.544560 -0.033779
H 1.263312 0.182156 2.272026
H 2.684973 0.344729 3.309058
H 2.431208 -1.175906 2.419636
H 5.025318 0.622476 0.523313
H 4.790142 -0.649297 1.730498
H 4.651317 1.091261 3.512881
H 7.051478 1.374308 1.649308
H 6.966569 0.382145 3.123502
H 7.961714 2.884372 3.374326
H 6.725576 2.365602 4.531297
H 6.407126 4.304940 2.228550
H 5.536450 4.254470 3.761357
H 4.806321 3.005035 1.154802
H 3.779595 3.132030 2.584215