24
H15 C7 N1 O1
C 1.076242 -0.032401 0.097747
O 2.461835 0.044423 -0.055542
C 2.934278 -0.642124 -1.178365
C 4.441810 -0.488605 -1.252969
N 4.967848 -1.205147 -2.396579
C 6.411634 -1.151938 -2.517854
C 6.960989 -2.119833 -3.549344
C 6.420227 -3.515180 -3.669008
C 6.184313 -2.518975 -4.774427
H 0.800039 0.529618 1.001438
H 0.728632 -1.077727 0.216058
H 0.538063 0.407068 -0.765373
H 2.468094 -0.244770 -2.105291
H 2.675873 -1.719654 -1.127793
H 4.883587 -0.906861 -0.332912
H 4.689397 0.594505 -1.259455
H 4.548162 -0.823921 -3.243456
H 6.844965 -1.410177 -1.535915
H 6.778789 -0.129443 -2.752680
H 8.041287 -2.014054 -3.693625
H 5.561609 -3.765255 -3.039507
H 7.122725 -4.334528 -3.845192
H 5.166288 -2.137728 -4.897244
H 6.733282 -2.642784 -5.712043