26
H17 C7 N1 O1
C 1.188258 -0.419633 -0.230676
C 2.537829 0.137766 0.212202
C 3.002299 1.437686 -0.498069
O 2.577228 1.451989 -1.853189
C 2.522672 2.712954 0.221676
C 1.022254 2.846258 0.459472
C 4.538164 1.409878 -0.536426
N 5.162938 2.631528 -1.000216
C 6.580754 2.480459 -1.252103
H 0.957741 -1.342573 0.323395
H 1.201300 -0.672735 -1.301506
H 0.356788 0.279522 -0.060115
H 3.295953 -0.643017 0.029936
H 2.538170 0.311904 1.301340
H 1.620525 1.568030 -1.865957
H 2.861755 3.564031 -0.390377
H 3.048040 2.784703 1.189499
H 0.441919 2.728003 -0.470723
H 0.788352 3.846062 0.856083
H 0.649259 2.109512 1.186631
H 4.821039 0.596777 -1.226482
H 4.899957 1.104231 0.470380
H 5.034463 3.362477 -0.303638
H 6.745890 1.790347 -2.096392
H 7.157052 2.083126 -0.388584
H 7.019462 3.451487 -1.528295