17
H10 C5 O2
C 2.593742 -0.251020 -3.499699
O 2.259808 0.100261 -2.187488
C 2.958548 -0.526248 -1.154552
C 2.947033 -2.061172 -0.987246
C 4.371964 -1.927577 -0.409997
O 5.314014 -2.925109 -0.655432
C 4.501861 -0.562273 -1.117860
H 1.899999 0.282720 -4.164837
H 2.486019 -1.333486 -3.696363
H 3.622689 0.047179 -3.772833
H 2.581907 -0.056820 -0.233176
H 2.992249 -2.574316 -1.961591
H 2.159214 -2.518022 -0.370937
H 4.337504 -1.796697 0.682527
H 5.362125 -3.060363 -1.609796
H 4.926116 -0.712914 -2.123864
H 5.038428 0.255120 -0.614657