27
H15 C8 N1 O1 F2
C 2.341306 0.247879 -1.221116
C 2.552690 -0.224046 0.201613
C 3.796387 -1.079839 0.515975
C 3.961975 -0.194316 1.759790
N 3.036781 0.779957 1.171506
C 2.124320 1.431206 2.074716
C 1.318165 2.577505 1.457953
C 2.192808 3.565252 0.695695
O 0.331172 2.001138 0.624242
C 0.560587 3.286541 2.588144
F 1.413040 3.928459 3.428796
F -0.258573 4.238054 2.060224
H 2.103922 -0.605936 -1.876276
H 3.251556 0.735716 -1.604955
H 1.509105 0.964048 -1.266610
H 1.631199 -0.717369 0.573943
H 4.598170 -0.936495 -0.223262
H 3.638452 -2.153457 0.682353
H 4.966994 0.195268 1.993228
H 3.553930 -0.677918 2.669822
H 2.717983 1.846012 2.904766
H 1.400456 0.712273 2.520469
H 2.700408 3.047339 -0.127336
H 2.957722 4.002015 1.353322
H 1.584871 4.385031 0.283320
H -0.096129 2.711441 0.128980
H -0.058578 2.591820 3.177239