29
H16 C8 N1 O1 F3
C 0.606883 3.230416 4.019894
C 2.118286 3.415093 3.956368
C 2.893755 2.161922 4.351697
C 4.405279 2.341547 4.291801
N 5.090320 1.121257 4.680193
C 6.530083 1.204505 4.848795
C 7.036029 -0.103365 5.452768
C 7.231471 1.588960 3.521778
O 6.944513 0.708249 2.474199
C 8.741618 1.777591 3.628092
F 9.394546 0.607798 3.723229
F 9.230965 2.396455 2.546917
F 9.081583 2.513826 4.692723
H 0.075274 4.149579 3.728571
H 0.280430 2.964167 5.038461
H 0.275112 2.424595 3.344865
H 2.415988 4.248975 4.616056
H 2.410023 3.716393 2.935022
H 2.606180 1.328709 3.684663
H 2.614141 1.850528 5.373033
H 4.708931 3.142449 4.988818
H 4.678933 2.696505 3.275559
H 4.878313 0.384565 4.007286
H 6.735743 2.020333 5.561488
H 6.916351 -0.949612 4.755000
H 6.442188 -0.334023 6.348156
H 8.093527 -0.046441 5.744125
H 6.853142 2.575354 3.213921
H 7.226151 -0.180030 2.731572