27
H17 C8 N1 O1
C 2.977531 0.242860 1.374405
C 2.539780 -0.068269 -0.053221
C 3.040436 1.013753 -1.038725
C 2.488310 2.403295 -0.725885
C 2.720492 0.639794 -2.489529
C 3.158868 -0.783857 -2.813451
O 4.562649 -0.926721 -2.751398
C 2.517357 -1.733345 -1.811439
N 3.006343 -1.398033 -0.481275
C 2.732468 -2.464295 0.462539
H 2.680276 1.261624 1.655204
H 4.073455 0.166369 1.466580
H 2.519488 -0.433666 2.108578
H 1.423506 -0.053143 -0.083920
H 4.140529 1.045573 -0.937898
H 1.385771 2.391069 -0.691263
H 2.786574 3.115995 -1.510501
H 2.853043 2.802360 0.231413
H 3.213695 1.347464 -3.175327
H 1.632560 0.725446 -2.660838
H 2.843489 -1.051988 -3.834653
H 4.744306 -1.082046 -1.811354
H 2.815393 -2.766361 -2.046135
H 1.408759 -1.679414 -1.878469
H 3.052357 -3.422403 0.027621
H 1.653135 -2.552402 0.714419
H 3.290764 -2.329938 1.398744