36
H23 C10 N1 O2
C 8.817014 8.839660 -7.284966
C 8.109388 7.665133 -7.937624
C 7.947365 7.857157 -9.442057
O 8.863132 6.509128 -7.625852
C 8.222962 5.284148 -7.852425
C 9.086328 4.187835 -7.245939
N 8.498212 2.867168 -7.390392
C 8.670735 2.339701 -8.730114
C 8.955837 1.941115 -6.363786
C 8.085023 0.694604 -6.237195
C 8.539271 -0.296556 -5.158023
C 8.582850 0.292310 -3.752610
O 9.773140 -0.906894 -5.494665
H 8.254894 9.771507 -7.445671
H 9.825449 8.965019 -7.710821
H 8.917644 8.674950 -6.201860
H 7.100766 7.561872 -7.486347
H 8.935238 7.921366 -9.926305
H 7.396848 8.786883 -9.651526
H 7.387696 7.030497 -9.904718
H 8.067006 5.106267 -8.932869
H 7.223323 5.262480 -7.373230
H 9.194766 4.413335 -6.174211
H 10.105915 4.245496 -7.687652
H 8.310413 3.058263 -9.479444
H 8.092595 1.415415 -8.869468
H 9.735754 2.113581 -8.962761
H 8.943827 2.481719 -5.405353
H 10.014788 1.640771 -6.543371
H 8.066835 0.142586 -7.189652
H 7.049124 1.009699 -6.027187
H 7.808339 -1.121896 -5.157796
H 9.360629 1.068831 -3.664902
H 8.811946 -0.495342 -3.019258
H 7.617836 0.748214 -3.482601
H 10.468019 -0.246702 -5.385688