31
H18 C9 N1 O2 F1
C 2.550410 0.318913 -1.038332
O 2.222335 -0.335143 0.159902
C 2.583483 0.356936 1.298773
C 1.954677 -0.329421 2.504911
N 0.521320 -0.099798 2.593947
C 0.184042 1.146052 3.280945
C 0.191952 0.826644 4.793915
C -0.049016 -0.699265 4.859371
C -1.258224 -1.103543 5.668561
F -1.091122 -0.752462 7.002883
C -0.188800 -1.106352 3.369924
O 3.985380 0.349388 1.412720
C 4.529601 1.488040 2.019974
H 2.208349 -0.313681 -1.868898
H 3.637938 0.475805 -1.136702
H 2.047694 1.301934 -1.113383
H 2.237519 1.413076 1.228782
H 2.503941 0.001382 3.409852
H 2.146399 -1.406583 2.387490
H -0.825808 1.460273 2.968859
H 0.876632 1.953914 3.004609
H -0.581416 1.395144 5.332257
H 1.157777 1.088666 5.249665
H 0.830442 -1.201625 5.292647
H -1.422078 -2.192865 5.625083
H -2.165084 -0.595248 5.298660
H -1.256265 -1.085783 3.084622
H 0.190192 -2.115520 3.157511
H 5.620769 1.361255 2.052752
H 4.169257 1.629308 3.056508
H 4.300184 2.408302 1.449470