28
H18 C8 N1 F1
C 9.988867 -0.809582 5.856992
C 9.769386 -1.533471 4.533085
C 8.396910 -1.302279 3.885717
C 8.170820 0.163151 3.513073
C 8.237053 -2.230850 2.678944
N 6.917852 -2.144779 2.070694
C 6.639633 -3.130669 1.032562
C 5.592646 -2.581231 0.069572
C 6.123498 -4.431830 1.623464
F 7.085641 -5.064156 2.403635
H 10.955557 -1.090847 6.302893
H 9.200297 -1.063441 6.584432
H 9.991817 0.284835 5.737102
H 9.897372 -2.617698 4.694465
H 10.557609 -1.238302 3.816626
H 7.621093 -1.591996 4.618636
H 8.901398 0.492840 2.754146
H 8.271575 0.825257 4.386029
H 7.160461 0.328076 3.107265
H 8.395267 -3.266103 3.011418
H 9.048255 -2.012243 1.947315
H 6.805529 -1.218446 1.665222
H 7.555119 -3.374337 0.451603
H 4.665893 -2.326889 0.608890
H 5.348363 -3.309942 -0.716989
H 5.964101 -1.667588 -0.418992
H 5.838875 -5.132701 0.822571
H 5.249501 -4.232651 2.264961