19
H12 C5 O2
C 2.825657 2.892831 1.060452
C 2.341437 2.430068 -0.311530
O 2.534127 3.445008 -1.276650
C 2.954027 1.094406 -0.787145
C 2.537524 -0.088195 0.084093
C 4.478770 1.142817 -0.906988
O 4.950524 2.192881 -1.739317
H 2.627722 2.144204 1.842764
H 2.304069 3.821085 1.337903
H 3.906289 3.107820 1.054434
H 1.249785 2.275077 -0.249297
H 3.474394 3.402061 -1.507838
H 2.550713 0.932600 -1.803578
H 2.983905 -0.030616 1.089859
H 2.858361 -1.040934 -0.365032
H 1.443718 -0.126379 0.203781
H 4.851418 0.167296 -1.267988
H 4.933024 1.306899 0.083124
H 4.766813 1.948741 -2.655576