36
H23 C11 N1 O1
C 7.055916 2.332854 -0.038933
C 6.298350 1.025751 -0.250451
C 4.778025 1.141092 -0.484476
C 4.294852 -0.020111 -1.358171
C 3.980413 1.209318 0.838283
C 2.459203 1.226991 0.622842
N 4.431804 2.301526 1.685657
C 4.128958 3.662004 1.306059
C 4.607037 4.451237 2.522585
O 4.179995 5.783942 2.582644
C 4.131539 3.568326 3.686437
C 4.851006 3.815768 5.001272
C 4.249718 2.141578 3.125757
H 8.140734 2.149888 0.024106
H 6.739676 2.833435 0.885782
H 6.888415 3.027560 -0.878734
H 6.476322 0.351456 0.606799
H 6.739994 0.516465 -1.123966
H 4.585736 2.076303 -1.043404
H 4.415496 -0.984251 -0.834338
H 4.879368 -0.073274 -2.289728
H 3.237343 0.077485 -1.642840
H 4.227945 0.285021 1.391829
H 2.162606 1.997938 -0.106957
H 1.940267 1.441993 1.570564
H 2.084368 0.259439 0.259972
H 3.043537 3.864433 1.155413
H 4.650396 3.955429 0.380979
H 5.709936 4.487130 2.515077
H 3.215207 5.783109 2.624704
H 3.058186 3.799625 3.818507
H 5.925285 3.585203 4.910086
H 4.439368 3.195190 5.812735
H 4.754367 4.871030 5.300379
H 3.347622 1.550266 3.378873
H 5.111120 1.604202 3.565700