33
H21 C10 N1 O1
C 1.053765 -0.278590 0.083865
O 2.303506 -0.019977 -0.480519
C 2.787724 1.264953 -0.201030
C 4.152748 1.405181 -0.875374
N 4.861673 2.654495 -0.721051
C 4.384883 3.858671 -1.405625
C 3.769588 3.563386 -2.766854
C 3.455355 4.716535 -0.531184
C 4.121402 5.050987 0.801595
C 4.594583 3.777695 1.501211
C 5.474626 2.903075 0.585389
C 6.887648 3.476100 0.433889
H 0.758786 -1.302457 -0.188308
H 0.277194 0.418931 -0.288122
H 1.072805 -0.203139 1.189274
H 2.874723 1.416057 0.893905
H 2.085095 2.034898 -0.578870
H 4.011760 1.184012 -1.944867
H 4.794158 0.596523 -0.485834
H 5.280289 4.480805 -1.596239
H 2.810266 3.028855 -2.682221
H 4.448017 2.961821 -3.391004
H 3.575418 4.509238 -3.294456
H 2.511280 4.172340 -0.353804
H 3.195430 5.640971 -1.073399
H 3.429195 5.607710 1.453424
H 4.979914 5.720498 0.617803
H 3.711615 3.194057 1.809434
H 5.147716 4.023099 2.422711
H 5.581188 1.919337 1.069906
H 6.887160 4.482844 -0.011714
H 7.493750 2.822591 -0.211740
H 7.383360 3.550719 1.414422