34
H21 C10 N1 O2
C 0.585158 -2.438644 1.163172
O 1.909738 -2.694253 0.804826
C 2.553271 -3.595317 1.662095
C 3.973275 -3.795006 1.155607
N 4.773804 -4.623869 2.040044
C 4.435657 -6.029423 1.944792
C 6.211235 -4.429307 1.913559
C 6.693974 -3.022579 2.289975
O 6.589415 -2.039275 1.271273
C 6.890504 -2.393950 -0.054126
C 8.086746 -3.039294 2.912620
C 9.355881 -2.725964 2.165151
C 8.812096 -1.751556 3.173196
H 0.166817 -1.722736 0.441075
H 0.506517 -1.998733 2.177023
H -0.035141 -3.356683 1.144604
H 1.994529 -4.551885 1.699635
H 2.591499 -3.203143 2.699142
H 4.429647 -2.798145 1.092372
H 3.934823 -4.202777 0.120905
H 3.363864 -6.190236 2.128892
H 4.989492 -6.605100 2.702378
H 4.674703 -6.463473 0.948078
H 6.587116 -4.716953 0.907809
H 6.687702 -5.128917 2.616527
H 6.005526 -2.673138 3.078697
H 7.115787 -1.462599 -0.594412
H 6.037416 -2.883198 -0.558048
H 7.763137 -3.060806 -0.145215
H 8.181581 -3.796936 3.697285
H 9.297770 -2.440008 1.113393
H 10.249710 -3.299270 2.425982
H 8.350846 -0.842612 2.777203
H 9.334836 -1.631184 4.125924