21
H12 C7 N2
C 0.931548 0.096350 0.053808
N 2.371143 0.075398 -0.139270
C 2.902703 -1.247387 -0.462425
C 2.589174 -1.701378 -1.891987
C 3.068810 -0.661465 -2.906461
C 2.542556 0.734096 -2.565769
C 2.882597 1.052288 -1.095574
C 2.467677 2.415885 -0.727260
N 2.143430 3.493019 -0.461299
H 0.668337 -0.627117 0.839572
H 0.336768 -0.154267 -0.846632
H 0.609177 1.089821 0.401445
H 2.508002 -1.965719 0.272115
H 3.998280 -1.214772 -0.325912
H 1.502588 -1.856560 -2.003206
H 3.068042 -2.674858 -2.081597
H 2.760871 -0.939326 -3.926189
H 4.172972 -0.635045 -2.903865
H 1.450825 0.781486 -2.708603
H 2.991846 1.494534 -3.222267
H 3.983983 1.050347 -1.002453