38
H25 C12 N1
C 0.992028 0.412283 0.201482
C 2.468054 0.078970 0.019624
C 3.004876 -0.886198 1.073750
C 4.482987 -1.224027 0.900736
C 5.012707 -2.191462 1.954134
C 6.489461 -2.519249 1.778653
N 6.962913 -3.402122 2.830448
C 6.868709 -4.854157 2.682673
C 6.264771 -5.524873 1.472975
C 8.181177 -4.154147 2.619648
C 9.204930 -4.186010 3.735833
C 10.153487 -5.370207 3.560465
C 9.955882 -2.857516 3.808624
H 0.635726 1.108517 -0.573674
H 0.807144 0.881526 1.181720
H 0.368586 -0.495238 0.146812
H 3.062325 1.009372 0.044900
H 2.627523 -0.355327 -0.983096
H 2.412585 -1.818998 1.048304
H 2.845436 -0.453774 2.078242
H 5.075572 -0.291781 0.929447
H 4.642341 -1.654371 -0.104503
H 4.429421 -3.128404 1.920247
H 4.862265 -1.769552 2.962840
H 7.082717 -1.590686 1.839143
H 6.661270 -2.927454 0.762685
H 6.623111 -5.355686 3.628326
H 6.597115 -5.074183 0.527746
H 5.164314 -5.488979 1.504578
H 6.561047 -6.585150 1.456026
H 8.617880 -4.082460 1.610106
H 8.648505 -4.318823 4.679980
H 10.721513 -5.284492 2.618748
H 9.603161 -6.324251 3.534430
H 10.881871 -5.423062 4.384950
H 10.521905 -2.672706 2.879880
H 10.671988 -2.845760 4.645661
H 9.255005 -2.019774 3.950444