23
H14 C7 O2
C 6.267179 -0.652315 -4.232063
C 6.084206 -0.484570 -2.727808
O 6.162904 -1.740359 -2.074584
C 4.782672 0.256648 -2.405858
C 4.587205 0.777022 -0.980453
C 4.764053 -0.200155 0.185907
C 4.889010 0.758578 1.361358
O 5.547979 1.911325 0.858010
C 5.535634 1.903115 -0.558309
H 6.347343 0.321837 -4.738164
H 5.410517 -1.193298 -4.668918
H 7.180404 -1.229029 -4.441399
H 6.939375 0.090810 -2.336428
H 5.378930 -2.246463 -2.322533
H 3.942953 -0.414767 -2.663579
H 4.697462 1.114236 -3.094711
H 3.559450 1.177250 -0.923802
H 5.683112 -0.788015 0.052941
H 3.924374 -0.902715 0.293767
H 5.475155 0.344600 2.197729
H 3.891909 1.036453 1.755111
H 6.560763 1.729612 -0.938298
H 5.206252 2.887608 -0.931784