21
H13 C7 N1
C 1.235610 -0.601197 -0.445097
C 1.989654 0.251426 0.249440
C 2.856199 1.320073 -0.349529
N 4.219923 1.223817 0.144755
C 5.077274 2.294102 -0.311471
C 4.889687 3.682793 0.337837
C 6.427137 3.820863 0.379460
C 6.527767 2.290188 0.205623
H 0.614830 -1.352211 0.052764
H 1.206404 -0.577488 -1.540489
H 2.007363 0.196188 1.345392
H 2.458398 2.305469 -0.044832
H 2.787227 1.285811 -1.457840
H 4.618188 0.331981 -0.149653
H 5.070363 2.401382 -1.417457
H 4.465965 3.568487 1.348079
H 4.313696 4.441038 -0.213163
H 6.873198 4.259880 1.283665
H 6.814204 4.359436 -0.498779
H 6.577122 1.775722 1.178056
H 7.309503 1.888023 -0.455951