23
H11 C6 N1 O1 F4
C 0.923453 -0.074721 0.150607
C 2.433713 -0.106626 -0.015803
O 2.931913 -1.434300 -0.026136
C 2.897039 0.640410 -1.262495
N 4.342755 0.613137 -1.346814
C 4.865229 1.115830 -2.590964
C 6.373523 1.215782 -2.525054
F 6.758149 2.105948 -1.577615
F 6.906732 0.014120 -2.164974
C 7.033146 1.607159 -3.850957
F 6.511273 2.779766 -4.274875
F 8.354361 1.788574 -3.652918
H 0.628233 -0.629871 1.053087
H 0.424419 -0.536996 -0.717730
H 0.556525 0.958652 0.242904
H 2.909925 0.369594 0.857044
H 2.469900 -1.911772 -0.727768
H 2.546932 1.685639 -1.217825
H 2.408053 0.178524 -2.150653
H 4.645574 -0.349839 -1.207449
H 4.480238 2.130156 -2.777815
H 4.603611 0.502972 -3.479046
H 6.880795 0.837479 -4.622352