30
H19 C9 N1 O1
C 1.974391 0.122458 3.663230
C 2.636320 -0.276580 2.577791
C 3.087777 0.624020 1.459544
C 2.362317 0.273675 0.152299
O 0.968029 0.339558 0.250035
N 4.517868 0.481310 1.238974
C 5.357146 1.043621 2.282704
C 6.832001 0.831161 1.967145
C 7.806622 1.483247 2.955035
C 7.626140 0.963921 4.382213
C 9.248649 1.288805 2.486418
H 1.657890 -0.585397 4.435174
H 1.720356 1.177130 3.819131
H 2.887670 -1.337559 2.446374
H 2.809997 1.670292 1.725343
H 2.749148 0.937490 -0.647392
H 2.621840 -0.758918 -0.132221
H 0.729962 1.234466 0.520760
H 4.761670 0.918141 0.350495
H 5.100800 0.550557 3.234385
H 5.165060 2.128936 2.438848
H 7.034365 1.232151 0.957447
H 7.030942 -0.254397 1.913289
H 7.597969 2.569159 2.961830
H 7.757752 -0.131155 4.420116
H 6.629182 1.196189 4.786846
H 8.368230 1.412890 5.061497
H 9.514298 0.218076 2.468989
H 9.960051 1.798160 3.155755
H 9.399258 1.686445 1.470016