27
H17 C8 N1 O1
C 2.162275 -2.275755 -1.451744
O 2.181540 -2.225441 -0.051990
C 3.020702 -1.249475 0.548083
C 2.678663 0.165846 0.090871
C 4.521002 -1.526632 0.393811
N 5.010191 -2.694345 1.111929
C 4.672639 -3.953157 0.479301
C 6.390989 -2.522045 1.488227
C 7.367631 -3.647111 1.627133
C 7.544706 -2.641560 0.514446
H 1.530575 -3.129731 -1.736157
H 3.163322 -2.433575 -1.893286
H 1.726750 -1.366932 -1.905267
H 2.792949 -1.337008 1.622540
H 3.038042 0.370767 -0.929956
H 3.142791 0.902972 0.762590
H 1.589297 0.320219 0.113711
H 5.035010 -0.644616 0.805410
H 4.795864 -1.557926 -0.684020
H 3.595563 -3.968935 0.275336
H 4.897106 -4.796159 1.148322
H 5.202594 -4.125666 -0.483514
H 6.506638 -1.722355 2.229117
H 7.064802 -4.657243 1.341945
H 8.054520 -3.613081 2.477034
H 7.318888 -2.986686 -0.499214
H 8.359912 -1.915550 0.578422