20
H12 C5 O3
C 1.167213 0.045940 0.130360
O 2.553467 0.009484 -0.053146
C 2.917471 -0.313692 -1.347549
O 4.300086 -0.312602 -1.380693
C 4.825522 -0.624214 -2.644997
C 6.339238 -0.597386 -2.572835
C 6.996608 -0.907676 -3.910920
O 8.400488 -0.933119 -3.835409
H 0.973783 0.306637 1.179773
H 0.694059 -0.932836 -0.080319
H 0.682431 0.804708 -0.514261
H 2.502895 0.428042 -2.072826
H 2.514781 -1.315488 -1.634213
H 4.465182 0.101716 -3.402542
H 4.476739 -1.624910 -2.972956
H 6.683616 -1.327784 -1.822898
H 6.660622 0.401199 -2.229032
H 6.645737 -0.184932 -4.674356
H 6.684379 -1.906614 -4.256798
H 8.695213 -0.055043 -3.566533