33
H20 C10 N2 O1
C 1.177298 2.373150 -1.026834
O 2.443936 1.989029 -0.581061
C 2.861949 0.706863 -1.014092
C 2.305967 -0.373708 -0.092724
C 4.389307 0.671457 -1.046305
N 4.977498 1.200696 -2.266829
C 4.626456 2.591816 -2.488787
C 6.427330 0.997795 -2.422193
C 6.957823 -0.261169 -1.740986
C 6.766147 0.956466 -3.924379
C 8.232887 1.299023 -4.213638
C 8.553676 1.231645 -5.636337
N 8.794164 1.174593 -6.766243
H 0.966292 3.373366 -0.621466
H 0.375828 1.690445 -0.686646
H 1.127845 2.429010 -2.132578
H 2.497539 0.529604 -2.045837
H 2.737722 -0.274919 0.916251
H 2.541741 -1.377709 -0.476443
H 1.211887 -0.296476 -0.006243
H 4.682849 -0.379718 -0.944179
H 4.748165 1.199854 -0.132850
H 3.545329 2.711719 -2.636108
H 5.122655 2.974878 -3.391189
H 4.923751 3.245182 -1.639911
H 6.966937 1.862116 -1.972938
H 6.425159 -1.159247 -2.092422
H 6.882133 -0.211860 -0.645999
H 8.022749 -0.391688 -1.981852
H 6.132804 1.665812 -4.474674
H 6.529159 -0.046464 -4.314861
H 8.922116 0.617078 -3.692009
H 8.467003 2.318409 -3.867579