39
H25 C12 N1 O1
C 4.921698 -4.712679 -5.203442
C 4.241692 -4.026273 -4.283077
C 4.651499 -3.854940 -2.850404
C 4.851733 -2.381946 -2.471293
C 5.312441 -2.150956 -1.018626
C 4.621316 -0.940389 -0.376461
C 4.894658 0.391517 -1.066395
N 6.758652 -1.963726 -0.932772
C 7.576810 -3.088257 -1.334722
C 9.044013 -2.784293 -1.090888
O 9.800347 -3.888756 -1.497743
C 11.196433 -3.680148 -1.593099
C 11.845917 -3.495727 -0.225626
C 11.767010 -4.872013 -2.341145
H 4.569220 -4.790122 -6.236548
H 5.857802 -5.226968 -4.956657
H 3.311061 -3.522179 -4.577912
H 5.564664 -4.438004 -2.653754
H 3.864051 -4.274928 -2.199024
H 3.895329 -1.857757 -2.636006
H 5.578449 -1.911866 -3.155368
H 5.001871 -3.044225 -0.431278
H 3.536455 -1.136831 -0.355062
H 4.940732 -0.878944 0.679127
H 4.527072 0.394355 -2.104906
H 5.972819 0.608252 -1.094792
H 4.394759 1.217974 -0.537953
H 6.986663 -1.726102 0.032347
H 7.445639 -3.282154 -2.411298
H 7.315578 -4.031904 -0.807465
H 9.198978 -2.556513 -0.016760
H 9.328507 -1.874976 -1.657710
H 11.376220 -2.763658 -2.192917
H 11.642656 -4.369995 0.413894
H 11.474140 -2.596458 0.287993
H 12.936114 -3.389009 -0.332116
H 11.604714 -5.798919 -1.768027
H 12.848145 -4.749025 -2.502645
H 11.278162 -4.981558 -3.320618