18
H10 C5 O3
C 4.411455 0.099782 -0.617266
O 3.923482 -1.155986 -1.019416
C 2.807861 -1.577579 -0.311456
O 2.337506 -2.730499 -0.914202
C 2.678022 -3.845692 -0.104488
C 3.553748 -3.247209 0.997876
C 3.394705 -3.863737 2.365660
O 3.103818 -1.893569 1.006816
H 5.243856 0.361042 -1.284105
H 4.780505 0.084281 0.422429
H 3.634984 0.883422 -0.699760
H 2.032991 -0.786860 -0.308837
H 3.207674 -4.602673 -0.701020
H 1.758243 -4.295212 0.308363
H 4.613765 -3.273428 0.688589
H 2.346974 -3.804671 2.697539
H 4.028505 -3.347394 3.101191
H 3.696026 -4.921557 2.337447