33
H21 C9 N1 O2
C 2.794925 -3.773012 1.235401
C 2.322561 -2.577423 0.419040
C 3.083981 -1.290541 0.719199
C 2.563866 -0.111804 -0.095919
N 3.353119 1.072386 0.181200
C 3.079090 2.222949 -0.666975
C 1.636793 2.692707 -0.518312
C 4.057859 3.364562 -0.327258
C 5.522429 2.947768 -0.390688
O 3.822990 4.482473 -1.160162
O 4.465518 -1.459003 0.432548
C 5.322409 -1.402841 1.540134
H 2.216547 -4.675971 0.986977
H 2.683628 -3.590631 2.316583
H 3.855442 -3.990074 1.035755
H 1.250732 -2.394011 0.602579
H 2.424526 -2.797452 -0.657555
H 2.966220 -1.039663 1.790368
H 2.577603 -0.387320 -1.174255
H 1.509560 0.054448 0.175662
H 4.324775 0.795807 0.052392
H 3.248352 1.976198 -1.743472
H 1.392811 2.836930 0.547302
H 0.921627 1.971843 -0.940838
H 1.502190 3.649141 -1.041086
H 3.829238 3.706233 0.696875
H 5.762977 2.507198 -1.373525
H 5.779991 2.216356 0.389361
H 6.161395 3.830959 -0.243787
H 4.043165 4.221616 -2.063608
H 6.351010 -1.534772 1.173430
H 5.113049 -2.201418 2.275541
H 5.261629 -0.429318 2.062345