30
H19 C9 N1 O1
C 0.885872 -0.096641 -0.650073
C 2.325439 0.017761 -0.162710
C 2.728424 -0.941912 0.965667
C 2.533911 -2.429438 0.613147
C 1.201088 -3.025178 1.057410
C 4.177895 -0.655530 1.373097
N 4.587513 -1.390966 2.544468
C 4.024726 -1.028166 3.847426
C 5.394654 -1.350336 4.478223
O 5.895343 -0.552488 5.497413
C 5.949781 -1.213287 3.046300
H 0.666097 0.680771 -1.398439
H 0.169295 0.027104 0.178297
H 0.687029 -1.070172 -1.124111
H 2.503441 1.051483 0.180618
H 3.010160 -0.139428 -1.016185
H 2.093595 -0.710770 1.842864
H 3.341361 -3.004081 1.093860
H 2.664042 -2.564537 -0.475741
H 1.094132 -2.966822 2.153076
H 1.126530 -4.087291 0.774583
H 0.339351 -2.503237 0.615308
H 4.302925 0.440394 1.531547
H 4.851301 -0.933663 0.542334
H 3.140233 -1.598896 4.173848
H 3.803894 0.058399 3.934001
H 5.440866 -2.390780 4.830587
H 5.861202 0.367036 5.205105
H 6.697534 -1.939827 2.687739
H 6.340286 -0.185062 2.883123