26
H15 C8 N1 O2
C 6.139001 -2.486536 -1.508248
O 5.860089 -1.232771 -0.898341
C 5.446255 -0.251168 -1.702559
O 5.339129 -0.375171 -2.895373
C 5.078805 0.987817 -0.891539
C 3.612640 0.829564 -0.478812
N 5.318388 2.181979 -1.691243
C 6.744226 2.412106 -1.935950
C 7.287122 3.188075 -0.709889
C 6.026468 3.824606 -0.084551
C 4.904211 3.438714 -1.069235
H 6.450438 -3.159390 -0.700960
H 6.947798 -2.392140 -2.247483
H 5.244625 -2.889769 -2.005540
H 5.698153 0.951731 0.027773
H 2.957904 0.939397 -1.356809
H 3.323348 1.572275 0.276765
H 3.450153 -0.164771 -0.038536
H 6.844661 3.027940 -2.844677
H 7.278264 1.470150 -2.124370
H 8.032305 3.937602 -1.013596
H 7.782488 2.508717 -0.000320
H 6.108653 4.914707 0.034925
H 5.825323 3.401511 0.911782
H 4.833374 4.198485 -1.865833
H 3.912319 3.367531 -0.606600