37
H24 C10 N2 O1
C 0.945591 -0.771713 -0.415527
C 2.399945 -0.363660 -0.343038
O 3.033093 -1.084768 0.681056
C 4.393724 -0.788120 0.821160
C 4.931406 -1.600453 1.989292
N 6.377589 -1.558341 2.103575
C 6.861746 -0.239603 2.462795
C 6.881967 -2.593049 2.996267
C 8.353629 -2.928391 2.774778
C 8.828392 -4.028502 3.717970
N 10.168041 -4.516150 3.433065
C 11.195304 -3.521119 3.656022
C 10.452819 -5.733062 4.162106
H 0.431788 -0.214513 -1.212915
H 0.435153 -0.563430 0.537290
H 0.853361 -1.847531 -0.629598
H 2.484516 0.726204 -0.153778
H 2.901784 -0.555155 -1.313573
H 4.531980 0.299104 0.983935
H 4.960272 -1.053980 -0.095123
H 4.625148 -2.644185 1.818978
H 4.425850 -1.265773 2.923970
H 6.595715 0.501944 1.695973
H 7.957790 -0.237132 2.540286
H 6.452394 0.113646 3.436156
H 6.289759 -3.505569 2.821914
H 6.718827 -2.318348 4.064076
H 8.968465 -2.025701 2.912159
H 8.495381 -3.258672 1.732327
H 8.138764 -4.885169 3.632908
H 8.747071 -3.670590 4.772156
H 11.045918 -2.643490 3.010670
H 12.183295 -3.941991 3.414110
H 11.229372 -3.164655 4.711236
H 9.704599 -6.505561 3.925591
H 10.451663 -5.589696 5.266894
H 11.442869 -6.123436 3.879270