34
H21 C10 N1 O2
C 2.951356 -3.377910 -6.146002
O 2.817983 -2.706317 -4.930206
C 3.938926 -2.842841 -4.098680
C 3.711614 -2.050711 -2.826817
C 4.827863 -2.186487 -1.773341
C 4.521035 -1.293348 -0.570294
N 6.172136 -1.942174 -2.261965
C 6.488216 -0.697942 -2.957049
C 7.548804 -1.088530 -3.988280
C 8.187972 -2.332195 -3.363112
O 8.992768 -3.134180 -4.186414
C 8.494877 -3.475924 -5.450522
C 6.978788 -3.042286 -2.741615
H 2.034857 -3.214748 -6.731332
H 3.086840 -4.469026 -6.006739
H 3.812977 -3.004932 -6.735231
H 4.846768 -2.481290 -4.623498
H 4.115130 -3.913103 -3.860363
H 2.763198 -2.383944 -2.374269
H 3.568800 -0.990089 -3.095163
H 4.823709 -3.233339 -1.424025
H 4.530440 -0.229623 -0.859795
H 5.274263 -1.437811 0.218857
H 3.527729 -1.515032 -0.150173
H 6.876469 0.067835 -2.257975
H 5.605185 -0.253205 -3.448477
H 8.273589 -0.288509 -4.196326
H 7.058448 -1.360228 -4.936049
H 8.854577 -2.011135 -2.546074
H 9.142003 -4.270414 -5.849756
H 8.521775 -2.628622 -6.160078
H 7.461054 -3.865746 -5.420664
H 7.283650 -3.714808 -1.920930
H 6.478234 -3.671285 -3.506543