27
H17 C8 N1 O1
C 0.829592 -0.138858 0.176993
C 2.299372 0.231055 -0.007582
C 3.247091 -0.009937 1.175818
C 2.788829 0.594174 2.501251
N 1.905608 -0.411598 3.069432
C 1.551240 -0.210869 4.454733
C 0.396465 -1.093457 4.903427
C 2.418739 -1.727326 2.721588
C 3.426809 -1.497962 1.572313
O 3.347925 -2.426378 0.524430
H 0.264164 0.081743 -0.742080
H 0.369111 0.420735 1.003468
H 0.686763 -1.209531 0.397049
H 2.362282 1.300025 -0.272165
H 2.705058 -0.315023 -0.875976
H 4.224835 0.406206 0.888430
H 2.260264 1.554586 2.374510
H 3.669548 0.791065 3.154171
H 1.268326 0.847509 4.580042
H 2.428406 -0.380899 5.123312
H -0.487989 -0.926549 4.268403
H 0.121906 -0.870841 5.945746
H 0.656632 -2.162230 4.849782
H 1.613118 -2.410161 2.393889
H 2.920555 -2.216835 3.581411
H 4.444394 -1.612205 1.975577
H 2.441476 -2.437528 0.194099