32
H19 C9 N1 O1 F2
C 1.216407 -0.547936 -0.500380
C 2.672537 -0.146449 -0.274099
C 3.050985 0.894625 -1.329440
N 2.917519 0.373415 1.080797
C 2.248978 -0.303258 2.190372
C 0.961610 0.375399 2.652883
C 0.322454 -0.331497 3.842540
C -0.953709 0.345838 4.322049
O -1.517929 -0.272070 5.453662
C 4.304908 0.684667 1.355794
C 4.457902 2.070010 1.938928
F 3.841741 2.158020 3.153475
F 5.775409 2.338132 2.156862
H 1.110317 -0.949583 -1.519077
H 0.548927 0.323857 -0.411241
H 0.868081 -1.325866 0.192755
H 3.294869 -1.054288 -0.443365
H 2.443649 1.804328 -1.193822
H 2.859015 0.498048 -2.338013
H 4.110225 1.185128 -1.293127
H 2.937846 -0.321890 3.048435
H 2.050914 -1.366263 1.951574
H 0.239445 0.424768 1.822900
H 1.202248 1.418082 2.919717
H 1.032948 -0.377388 4.686087
H 0.089323 -1.377807 3.570735
H -1.680478 0.398626 3.486382
H -0.733074 1.386360 4.611977
H -1.741900 -1.177872 5.210021
H 4.909618 0.666074 0.439582
H 4.777644 -0.031345 2.055009
H 4.040020 2.855885 1.290389