17
H9 C6 N1 O1
C 0.757689 -0.162633 -0.127251
C 2.261580 0.017886 0.034086
C 3.046560 -1.272639 0.332473
C 4.470243 -0.971304 0.462498
N 5.596475 -0.728326 0.564662
C 2.466881 -2.180767 1.445507
O 1.963317 -3.102652 0.483413
C 2.716169 -2.494040 -0.561289
H 0.293179 0.812396 -0.335741
H 0.286840 -0.562299 0.782943
H 0.506542 -0.831496 -0.963592
H 2.463273 0.729811 0.850986
H 2.681368 0.462249 -0.883005
H 1.678385 -1.730781 2.068446
H 3.233904 -2.630330 2.099105
H 2.117333 -2.281258 -1.460339
H 3.599972 -3.090027 -0.846561