27
H17 C8 N1 O1
C 2.003313 0.050469 0.814151
C 3.011166 -0.200764 -0.300578
O 2.584593 -1.269022 -1.129168
C 3.301175 1.084193 -1.080122
N 4.455315 1.028441 -1.962996
C 4.177631 0.372628 -3.226063
C 5.105468 2.320670 -2.125973
C 6.215128 2.595926 -1.123309
C 6.266456 1.974803 0.245795
C 7.239620 1.541969 -0.817454
H 1.775122 -0.890757 1.335511
H 1.061091 0.454174 0.405864
H 2.390573 0.770941 1.550514
H 3.961792 -0.543419 0.140034
H 1.748264 -1.004608 -1.533960
H 3.472303 1.878832 -0.339612
H 2.378772 1.376659 -1.636033
H 3.742145 -0.616918 -3.040726
H 5.108589 0.237021 -3.797487
H 3.465725 0.945323 -3.862501
H 4.367069 3.148994 -2.095166
H 5.553292 2.360836 -3.131947
H 6.594920 3.621459 -1.185558
H 5.487903 1.261446 0.525881
H 6.638193 2.587843 1.071592
H 7.072429 0.555307 -1.260272
H 8.288053 1.838414 -0.724416