30
H17 C9 N1 O1 F2
C 0.475321 -4.599092 -0.299767
C -0.068042 -3.176093 -0.193893
N 0.920247 -2.285608 -0.799659
C 0.583675 -0.912505 -1.158145
C 0.737964 0.038637 0.037984
O 0.767584 1.391431 -0.354135
C -0.761800 -0.695076 -1.866010
C -0.844153 -1.304058 -3.238719
F -0.813186 -2.669420 -3.190281
F -2.030980 -0.976443 -3.824981
C -0.357039 -2.823579 1.254610
C -1.541296 -1.979318 1.639113
C -1.540402 -3.452206 1.936244
H -0.228487 -5.322943 0.135652
H 1.437522 -4.685589 0.230565
H 0.638498 -4.878144 -1.353312
H -1.035109 -3.152431 -0.736282
H 1.295421 -2.748307 -1.622170
H 1.369285 -0.595226 -1.865634
H -0.051739 -0.140264 0.784678
H 1.701715 -0.195120 0.517156
H -0.134459 1.728174 -0.358517
H -0.907720 0.386497 -2.008571
H -1.608033 -1.064520 -1.265730
H -0.032115 -0.979414 -3.909296
H 0.546479 -2.699633 1.862702
H -2.193133 -1.625656 0.834608
H -1.431451 -1.280356 2.472804
H -2.190085 -4.090906 1.329449
H -1.430744 -3.775402 2.974693