30
H19 C9 N1 O1
C 3.999186 -4.404751 -1.787538
C 3.814606 -3.449809 -0.614513
C 4.679421 -2.196543 -0.728926
C 4.520723 -1.225341 0.445812
C 5.105706 -1.701122 1.786017
N 6.552789 -1.584550 1.905003
C 7.399073 -2.636178 1.355455
C 7.001781 -4.035647 1.794894
C 6.970474 -0.242309 1.532289
C 6.434548 0.164401 0.165565
O 5.026508 0.065621 0.128434
H 3.353247 -5.291218 -1.691668
H 5.041893 -4.756528 -1.852359
H 3.755099 -3.914267 -2.743977
H 4.044958 -3.981919 0.323719
H 2.754072 -3.151847 -0.541335
H 4.399939 -1.645457 -1.643329
H 5.733505 -2.490293 -0.854045
H 3.439101 -1.069290 0.597701
H 4.785733 -2.730497 1.997800
H 4.662270 -1.067159 2.574716
H 8.422255 -2.432523 1.715286
H 7.464984 -2.615286 0.247292
H 6.884526 -4.083625 2.889262
H 7.781754 -4.753872 1.500800
H 6.059984 -4.368178 1.333193
H 8.069776 -0.176017 1.546445
H 6.583852 0.471416 2.282764
H 6.896407 -0.455957 -0.626963
H 6.683409 1.213966 -0.053145