25
H14 C8 O3
C 1.165697 -0.361264 0.349840
C 2.514273 0.101960 -0.191210
C 2.972516 -0.532633 -1.524325
C 1.938229 -0.223981 -2.629606
C 2.260370 -0.632183 -4.065525
C 3.194181 -2.027558 -1.316424
O 3.963670 -2.633187 -2.362798
C 4.900003 -1.987429 -3.051126
O 5.562161 -2.561248 -3.872473
O 5.069672 -0.687684 -2.830634
C 4.350114 0.046501 -1.833266
H 0.968884 0.117750 1.320868
H 1.137514 -1.450162 0.511733
H 0.333281 -0.096636 -0.318727
H 3.288733 -0.095758 0.568674
H 2.494486 1.196297 -0.330153
H 1.754640 0.863853 -2.604708
H 0.988157 -0.700742 -2.340959
H 3.171142 -0.146249 -4.445585
H 1.432597 -0.334071 -4.726876
H 2.382364 -1.720475 -4.172186
H 2.248885 -2.585635 -1.296281
H 3.723370 -2.206819 -0.366115
H 4.278286 1.073987 -2.216593
H 4.971036 0.060215 -0.923336