36
H23 C11 N1 O1
C 1.756554 0.333122 1.050644
C 3.066302 0.366827 0.775493
C 3.779090 1.646325 0.429415
C 3.907281 -0.888211 0.784055
C 4.218467 -1.412233 -0.622493
N 5.089926 -2.577220 -0.599079
C 4.868389 -3.484740 -1.718636
C 3.622909 -4.343107 -1.555425
C 6.490313 -2.237845 -0.412882
C 7.215940 -3.280006 0.421599
O 8.561346 -2.913521 0.531212
C 9.329423 -3.801685 1.299412
C 10.759486 -3.312411 1.349050
H 1.142946 1.239766 1.029435
H 1.253270 -0.604234 1.310184
H 3.095492 2.507392 0.414413
H 4.267534 1.577019 -0.556368
H 4.578998 1.849989 1.161057
H 3.394584 -1.689954 1.337837
H 4.853624 -0.682944 1.313693
H 4.647850 -0.603707 -1.252179
H 3.265275 -1.692159 -1.095321
H 5.741376 -4.150761 -1.795464
H 4.823960 -2.928468 -2.681064
H 3.687832 -4.941153 -0.633069
H 3.514143 -5.030608 -2.408518
H 2.705456 -3.736585 -1.501785
H 6.568813 -1.274451 0.113397
H 7.020997 -2.108406 -1.379807
H 7.120615 -4.284038 -0.040934
H 6.734641 -3.342516 1.419097
H 9.286943 -4.821187 0.863891
H 8.914085 -3.879743 2.325104
H 11.186907 -3.256549 0.336156
H 11.377286 -3.997259 1.948731
H 10.812447 -2.310750 1.802517