38
H25 C11 N1 O1
C 0.430191 2.843764 -2.575333
C 1.762751 2.568650 -1.888901
C 2.899868 3.452309 -2.397545
C 4.232008 3.185020 -1.701887
C 5.435266 3.959533 -2.262518
C 5.301879 5.466201 -2.062360
N 6.701467 3.513122 -1.678406
C 7.240421 2.244737 -2.158156
C 7.976712 1.545542 -1.010268
C 8.554968 0.173020 -1.333369
C 8.160921 2.471486 -3.351809
O 7.443320 3.018221 -4.425228
C 8.240290 3.308752 -5.533739
H -0.367021 2.189967 -2.188484
H 0.500131 2.676799 -3.662771
H 0.109867 3.887267 -2.421198
H 2.037820 1.508274 -2.028141
H 1.653379 2.712671 -0.799457
H 2.612167 4.510384 -2.270853
H 3.021649 3.297924 -3.485397
H 4.452899 2.105174 -1.770116
H 4.139933 3.412413 -0.622778
H 5.503370 3.761645 -3.342814
H 5.244721 5.712804 -0.988034
H 4.401229 5.870334 -2.548713
H 6.178920 5.982128 -2.481428
H 6.593201 3.474943 -0.665933
H 6.431434 1.564743 -2.500066
H 8.775085 2.215823 -0.645009
H 7.257636 1.444764 -0.179484
H 9.395697 0.228110 -2.041364
H 7.790297 -0.489604 -1.770426
H 8.931384 -0.311333 -0.419460
H 8.624912 1.515215 -3.665351
H 8.980649 3.154327 -3.045043
H 7.593709 3.720525 -6.321874
H 8.743797 2.405101 -5.930922
H 9.023554 4.055698 -5.297503