23
H10 C7 O6
C 8.463255 1.255929 -10.119680
O 7.653882 0.837475 -9.056496
C 7.906994 1.529589 -7.884173
C 6.992827 1.040186 -6.787106
O 6.136889 0.205485 -6.886534
O 7.270561 1.686913 -5.647822
C 6.490808 1.367282 -4.502366
C 7.038376 2.170599 -3.345848
C 8.549249 2.023486 -3.119336
O 9.082181 3.204829 -3.711467
C 8.105422 4.083587 -3.950054
O 8.271864 5.184925 -4.378622
O 6.911757 3.567246 -3.627435
H 8.195019 0.657989 -11.001519
H 9.538547 1.104425 -9.904237
H 8.309720 2.325931 -10.358541
H 7.743420 2.621569 -7.992611
H 8.952413 1.406356 -7.534690
H 6.559147 0.292545 -4.272950
H 5.434303 1.619612 -4.678897
H 6.457690 1.940950 -2.443647
H 8.979087 1.145004 -3.616268
H 8.809409 2.007430 -2.051802