34
H22 C9 N2 O1
C 4.825892 2.477726 -2.544342
O 4.476512 2.377570 -1.197432
C 4.841270 1.154798 -0.624601
C 4.403047 1.083375 0.834516
C 2.884930 1.132095 0.962708
N 4.982198 2.152437 1.636398
C 6.430661 2.194789 1.687485
C 6.909946 3.198515 2.727766
C 8.430389 3.284303 2.792805
N 8.928460 4.361759 3.631941
C 8.617978 4.180464 5.033900
C 10.345824 4.573542 3.433178
H 4.507008 3.464698 -2.909558
H 4.332647 1.700708 -3.161862
H 5.919590 2.385679 -2.697816
H 5.936571 1.001537 -0.706459
H 4.370211 0.309686 -1.168453
H 4.751751 0.083692 1.182373
H 2.501421 2.083249 0.565155
H 2.578512 1.048160 2.017601
H 2.415310 0.305116 0.408707
H 4.622481 2.064919 2.585587
H 6.817672 2.496561 0.699153
H 6.878813 1.198417 1.904468
H 6.497442 2.912126 3.710338
H 6.501936 4.194339 2.487228
H 8.812668 3.454754 1.772445
H 8.842709 2.298994 3.116851
H 7.531516 4.140555 5.198619
H 9.007231 5.029457 5.616568
H 9.060122 3.249320 5.457310
H 10.556567 4.785174 2.373283
H 10.963857 3.695835 3.731149
H 10.688279 5.436703 4.024981