27
H17 C8 N1 O1
C 1.023663 -0.104881 -0.125048
C 2.529751 0.088583 -0.047205
O 3.067431 0.490288 -1.296881
C 2.935102 1.072934 1.045610
N 4.376824 1.172523 1.124903
C 4.887138 2.154798 2.057446
C 6.419818 2.136483 2.134947
C 6.824778 3.486947 2.759146
C 5.555965 4.375822 2.705115
C 4.586636 3.638934 1.778143
H 0.770472 -0.807618 -0.932618
H 0.516480 0.853033 -0.330708
H 0.624901 -0.503687 0.820064
H 3.014304 -0.876922 0.173545
H 2.620566 1.307753 -1.553070
H 2.537594 0.725889 2.015107
H 2.435286 2.044959 0.831848
H 4.733823 1.370668 0.189860
H 4.477188 1.910934 3.056132
H 6.809534 2.055279 1.105514
H 6.797022 1.265438 2.691020
H 7.657746 3.942746 2.203102
H 7.171850 3.363407 3.796050
H 5.769294 5.401530 2.369338
H 5.110339 4.456619 3.709655
H 4.822065 3.847092 0.718307
H 3.534999 3.915539 1.947497