31
H18 C9 N1 O2 F1
C 6.131314 5.170629 -3.197269
C 5.558616 4.541260 -1.927946
C 4.238171 3.827153 -2.217197
C 6.556873 3.568571 -1.316589
F 7.824679 4.154559 -1.263007
C 6.212164 3.152126 0.126828
O 5.292781 3.702315 0.721404
N 6.973656 2.181556 0.686857
C 8.149940 1.596198 0.065196
C 6.766644 1.809000 2.096874
C 5.395184 1.195909 2.360760
C 7.089158 2.965840 3.046519
O 8.371186 3.502296 2.838274
H 5.400036 5.864265 -3.639565
H 6.363225 4.400910 -3.952461
H 7.051826 5.735107 -2.993365
H 5.373963 5.332061 -1.183532
H 4.379932 3.021746 -2.957338
H 3.505006 4.535304 -2.632522
H 3.806291 3.390007 -1.306393
H 6.637391 2.679861 -1.965577
H 8.189347 1.788542 -1.010344
H 8.139300 0.506070 0.212001
H 9.066987 2.002934 0.519776
H 7.516674 1.026112 2.291402
H 4.595788 1.938324 2.241818
H 5.355678 0.794075 3.384607
H 5.208927 0.365529 1.663182
H 6.957617 2.602452 4.083651
H 6.371829 3.782367 2.888286
H 9.019344 2.826792 3.070151