27
H14 C8 N1 O1 F3
O 1.962499 0.098479 -0.334856
C 1.100359 -0.031674 0.779196
C 0.361705 1.274319 1.082835
C -0.633925 1.617210 -0.024616
C -1.570875 0.432295 -0.280393
N -0.864776 -0.808244 -0.579127
C -0.384654 -0.914936 -1.945445
C -1.501705 -1.379445 -2.880729
C -1.070182 -1.484697 -4.315388
F -0.685281 -0.301018 -4.823076
F -0.033978 -2.324455 -4.479962
F -2.058902 -1.935911 -5.102693
C 0.095015 -1.139973 0.461181
H 2.518308 0.873529 -0.193673
H 1.676229 -0.337949 1.675119
H 1.090736 2.089444 1.231498
H -0.173093 1.153603 2.040990
H -0.086331 1.863750 -0.949131
H -1.222773 2.508286 0.244817
H -2.267331 0.660320 -1.101880
H -2.190985 0.266017 0.619392
H 0.429687 -1.652068 -1.973208
H 0.047804 0.030032 -2.324700
H -2.353521 -0.683461 -2.859144
H -1.868036 -2.368849 -2.570952
H 0.635916 -2.056051 0.177922
H -0.459158 -1.363124 1.390413