29
H19 C9 N1
C 0.958763 0.181824 -0.143634
C 2.459280 0.373870 0.010473
N 3.086367 0.613181 -1.277611
C 4.547607 0.668347 -1.284006
C 5.037647 0.770773 -2.736478
C 5.099551 2.178315 -3.343715
C 6.427676 2.896264 -3.088885
C 6.699514 3.305799 -1.641616
C 6.558762 2.202990 -0.587040
C 5.112654 1.755185 -0.344722
H 0.485024 -0.033322 0.826430
H 0.740808 -0.649807 -0.831767
H 0.486476 1.090617 -0.551928
H 2.906882 -0.539527 0.440839
H 2.643406 1.181001 0.749901
H 2.721165 1.482051 -1.670239
H 4.891644 -0.311380 -0.904733
H 4.366155 0.132216 -3.331575
H 6.039548 0.317414 -2.815118
H 4.257470 2.795166 -2.981000
H 4.961515 2.096412 -4.433940
H 6.478954 3.799754 -3.719750
H 7.243458 2.236617 -3.436605
H 6.015861 4.129126 -1.365609
H 7.717470 3.727422 -1.587537
H 6.965279 2.591915 0.360660
H 7.191180 1.336546 -0.851019
H 4.457124 2.642633 -0.413602
H 5.013830 1.393700 0.691168