18
H11 C5 N1 O1
C 0.975849 -0.047406 0.037569
N 2.401831 -0.029018 0.230374
C 3.023818 1.032034 1.021985
C 4.040836 0.007731 1.557570
C 3.095144 -1.078871 0.996881
C 2.281551 -1.828070 2.037870
O 1.749862 -0.932663 2.985461
H 0.672023 0.842533 -0.537429
H 0.399523 -0.056286 0.985661
H 0.682235 -0.931972 -0.550775
H 2.366919 1.429985 1.818956
H 3.418838 1.879821 0.434513
H 4.196203 -0.003125 2.644151
H 5.010701 0.042167 1.043070
H 3.571027 -1.843659 0.354888
H 1.479693 -2.395485 1.526078
H 2.948000 -2.574475 2.514422
H 1.198606 -1.432489 3.597014