24
H12 C8 N2 F2
N 1.911044 0.710942 1.520197
C 2.604131 0.428286 0.639172
C 3.510259 0.052811 -0.466309
N 4.158917 -1.214135 -0.238402
C 3.794280 -2.296350 -1.119977
C 2.531838 -2.995683 -0.664594
F 1.471986 -2.136621 -0.704888
F 2.240055 -4.014476 -1.515582
C 5.507564 -1.197520 0.280035
C 6.686872 -0.538935 -0.483566
C 7.265059 -0.139837 0.890945
C 5.856979 -0.322282 1.499725
H 4.228403 0.880711 -0.592337
H 2.905947 0.031180 -1.385869
H 4.593731 -3.050512 -1.126124
H 3.642009 -1.971599 -2.167234
H 2.605298 -3.394964 0.358876
H 5.774810 -2.239429 0.511456
H 6.359135 0.346706 -1.050478
H 7.289195 -1.180757 -1.143781
H 7.725124 0.854627 0.977921
H 7.973799 -0.891510 1.269970
H 5.304779 0.630111 1.493136
H 5.761597 -0.777394 2.496828