28
H18 C8 N2
C 1.100323 -0.209579 0.469021
C 2.544345 -0.142709 -0.048708
C 2.865086 -1.381154 -0.888856
N 2.917273 1.075445 -0.763820
C 2.111083 1.488273 -1.899933
C 0.995643 2.489419 -1.560348
C 1.521303 3.699352 -0.778437
N 2.263522 4.593861 -1.668303
C 2.326072 3.200107 0.435876
C 3.407459 2.200813 0.010847
H 0.950913 -1.122483 1.067529
H 0.378328 -0.240174 -0.363105
H 0.855459 0.653176 1.105567
H 3.206591 -0.172900 0.832677
H 2.223658 -1.440208 -1.783382
H 2.701691 -2.302106 -0.307536
H 3.913708 -1.360396 -1.222103
H 1.676868 0.600101 -2.382849
H 2.777943 1.944132 -2.657866
H 0.223069 1.988521 -0.957420
H 0.514572 2.835406 -2.489689
H 0.654915 4.272423 -0.407151
H 3.075116 4.112441 -2.055627
H 2.648659 5.366836 -1.125264
H 1.640609 2.723815 1.156436
H 2.790711 4.057983 0.951453
H 3.946552 1.821515 0.892388
H 4.157515 2.744050 -0.597816