34
H21 C11 N1 O1
C 3.817671 3.143240 -1.986226
O 3.820872 2.559749 -0.717908
C 4.803267 1.574689 -0.569343
C 4.760095 0.967066 0.825443
C 3.438057 0.256964 1.094544
N 5.004231 1.957276 1.856754
C 5.327142 1.475703 3.202991
C 6.234757 2.704674 3.390998
C 5.525552 3.887878 4.064650
C 5.797121 5.223831 3.375135
C 5.387694 5.157155 1.905133
C 6.219829 4.119750 1.155501
C 6.237837 2.759010 1.840348
H 3.022227 3.901682 -2.012580
H 3.621053 2.400237 -2.784208
H 4.781354 3.639436 -2.216578
H 5.809450 1.996309 -0.767983
H 4.656028 0.760880 -1.308908
H 5.576589 0.205929 0.833484
H 2.607839 0.977466 1.055191
H 3.437751 -0.219401 2.086849
H 3.257216 -0.529069 0.345404
H 5.903030 0.526649 3.184802
H 4.475343 1.359891 3.894941
H 7.216956 2.518083 3.847608
H 5.811298 3.932310 5.127991
H 4.435851 3.716226 4.044262
H 6.870593 5.478214 3.445777
H 5.248738 6.026760 3.893551
H 5.500079 6.141826 1.423877
H 4.318964 4.889072 1.836654
H 7.263481 4.475543 1.095355
H 5.861838 4.012758 0.120637
H 7.086887 2.158691 1.447484