36
H23 C11 N1 O1
C 8.511019 6.504687 -6.038245
C 7.647299 5.716356 -5.395574
C 8.013882 4.631272 -4.426441
C 7.547998 3.244023 -4.878791
C 7.895005 2.140435 -3.884066
C 7.434375 0.759479 -4.341410
C 7.828698 -0.403327 -3.417742
C 7.126482 -0.335662 -2.065421
N 9.271083 -0.450772 -3.196181
C 10.068304 -0.783920 -4.358146
C 11.536985 -0.863512 -3.987096
O 12.280514 -1.154760 -5.135186
C 13.652678 -1.251906 -4.896742
H 8.172073 7.273146 -6.739811
H 9.592489 6.413091 -5.884377
H 6.572657 5.842941 -5.585729
H 7.552878 4.854666 -3.447111
H 9.105622 4.623643 -4.268039
H 8.002673 3.013289 -5.858565
H 6.455884 3.261708 -5.045097
H 7.444510 2.383629 -2.906164
H 8.985412 2.121416 -3.719960
H 7.830281 0.567961 -5.353470
H 6.335917 0.748698 -4.447897
H 7.483927 -1.332560 -3.924451
H 7.452814 0.544398 -1.489762
H 7.352318 -1.231386 -1.464388
H 6.034620 -0.282760 -2.191832
H 9.459824 -1.133021 -2.462928
H 9.954282 -0.000736 -5.124914
H 9.766623 -1.741595 -4.835357
H 11.690624 -1.645036 -3.212332
H 11.856378 0.098894 -3.537279
H 14.150882 -1.477065 -5.850678
H 13.893173 -2.059851 -4.177637
H 14.072725 -0.307754 -4.497202