35
H23 C10 N1 O1
C 0.328535 1.702223 -1.778887
C 0.784658 1.397470 -0.355380
C 0.004133 2.101510 0.777500
C 0.644738 3.423170 1.227847
C 0.849463 4.540386 0.197312
C 1.802873 5.599570 0.753885
C -0.454488 5.226609 -0.222685
O -1.434307 4.385886 -0.784953
N -0.095578 1.224043 1.951581
C -1.389093 0.575270 2.147934
C -1.686011 -0.437185 1.045487
C -1.405712 -0.089189 3.519671
H 0.855468 1.061461 -2.503103
H 0.525634 2.742671 -2.079879
H -0.751146 1.512752 -1.898464
H 1.861951 1.618636 -0.247509
H 0.689571 0.314764 -0.188621
H -1.009777 2.332143 0.403884
H 0.038828 3.832746 2.057561
H 1.628922 3.168989 1.663093
H 1.322102 4.117244 -0.706108
H 1.403091 6.040886 1.682501
H 1.962530 6.418818 0.035145
H 2.785457 5.162827 0.988728
H -0.210286 6.057649 -0.913682
H -0.917571 5.683452 0.668879
H -1.060481 3.972556 -1.571307
H 0.107667 1.765244 2.788810
H -2.208846 1.328965 2.125638
H -0.917157 -1.227217 1.025083
H -1.716660 0.037589 0.052890
H -2.665124 -0.911634 1.215051
H -0.615676 -0.854860 3.586325
H -2.375186 -0.573213 3.712306
H -1.232822 0.648989 4.319698