15
H8 C4 O3
C 1.064874 -0.066627 -0.015163
C 2.553857 0.068815 -0.286922
O 3.292125 -1.025412 0.215641
C 2.829714 0.261547 -1.773723
O 4.220441 0.455635 -2.001757
C 4.983713 -0.625421 -2.135563
O 6.179951 -0.562051 -2.171703
H 0.890074 -0.204110 1.061620
H 0.647434 -0.937601 -0.547762
H 0.517502 0.829149 -0.344312
H 2.945041 0.953439 0.241274
H 2.867204 -1.836843 -0.092759
H 2.321912 1.158696 -2.151933
H 2.465010 -0.608192 -2.349611
H 4.410746 -1.571845 -2.246848