30
H18 C9 N1 O1 F1
C 0.916773 -0.508611 -0.038606
C 2.272498 0.148956 0.149243
C 2.150809 1.597113 0.611258
O 2.988846 -0.647096 1.072793
C 4.353932 -0.358506 1.200653
C 5.011814 -1.525577 1.939156
N 6.385088 -1.316825 2.325498
C 7.378409 -1.166548 1.269012
C 8.559850 -0.524916 1.990534
C 7.865398 0.417944 2.955998
F 7.432750 1.542945 2.241837
C 6.650024 -0.372492 3.409176
H 0.325507 0.027469 -0.795693
H 0.353173 -0.505689 0.908125
H 1.037737 -1.552244 -0.365171
H 2.811751 0.135994 -0.821155
H 1.660294 1.643017 1.597188
H 1.548450 2.177724 -0.103846
H 3.133632 2.085584 0.690446
H 4.524994 0.581465 1.760335
H 4.814327 -0.223011 0.201800
H 4.943382 -2.426296 1.305471
H 4.413212 -1.733907 2.841600
H 7.040729 -0.504235 0.446839
H 7.633685 -2.140047 0.817992
H 9.260101 -0.000468 1.326118
H 9.120672 -1.275949 2.568444
H 8.495566 0.781129 3.780177
H 5.811415 0.317779 3.602665
H 6.868233 -0.892621 4.360293