33
H21 C10 N1 O1
C 1.744316 2.873371 0.259358
O 2.842584 2.005766 0.254825
C 2.815655 0.999989 -0.744589
C 1.958715 -0.178455 -0.305285
C 4.274552 0.625754 -1.036717
C 4.378216 -0.427077 -2.136273
N 4.978707 1.845567 -1.420330
C 6.420274 1.834933 -1.284626
C 7.053673 3.165885 -1.755349
C 7.208101 3.594794 -0.282800
C 7.026255 2.119390 0.138534
C 6.236699 1.820450 1.399138
H 1.902892 3.608797 1.060835
H 0.789741 2.351574 0.456588
H 1.647166 3.415962 -0.700465
H 2.394008 1.437024 -1.673219
H 2.418647 -0.693602 0.552864
H 1.825391 -0.903938 -1.120188
H 0.956716 0.162594 -0.005549
H 4.684385 0.192181 -0.101439
H 3.857332 -0.090073 -3.047289
H 3.950516 -1.389594 -1.820274
H 5.430152 -0.612095 -2.399534
H 4.591325 2.609183 -0.867739
H 6.812241 0.929114 -1.772229
H 6.414668 3.785237 -2.403240
H 8.023001 3.012733 -2.252529
H 6.362556 4.216429 0.054819
H 8.143837 4.093967 0.012185
H 8.015225 1.635050 0.194630
H 5.193974 2.164642 1.312744
H 6.691360 2.330347 2.264691
H 6.215861 0.742142 1.624359