39
H25 C12 N1 O1
C 0.762734 0.051746 0.956716
C 2.093391 -0.018366 0.210759
C 1.928817 -0.623514 -1.181566
C 2.729277 1.364361 0.143072
O 3.991010 1.283880 -0.460170
C 4.632587 2.518935 -0.605623
C 5.977843 2.294620 -1.278564
N 6.683780 3.548834 -1.479093
C 6.323944 4.248662 -2.707611
C 6.965314 3.651110 -3.965162
C 8.488758 3.550276 -3.828441
C 9.130327 2.890011 -5.043441
C 8.837858 2.825817 -2.523444
C 8.130416 3.473094 -1.329666
H 0.308307 -0.947110 1.046255
H 0.044497 0.697721 0.423993
H 0.887837 0.455771 1.973960
H 2.783188 -0.659312 0.788380
H 1.239159 -0.015840 -1.792296
H 1.517362 -1.643680 -1.125048
H 2.893032 -0.670752 -1.707949
H 2.818406 1.789420 1.164201
H 2.070008 2.050622 -0.431483
H 4.792000 3.005324 0.378144
H 4.009486 3.211267 -1.208095
H 5.811280 1.727236 -2.216303
H 6.579707 1.642919 -0.626240
H 6.644531 5.301434 -2.608337
H 5.227814 4.263982 -2.808547
H 6.697884 4.263912 -4.842248
H 6.553728 2.642243 -4.149675
H 8.882901 4.581646 -3.746825
H 8.767792 1.855304 -5.165376
H 10.227259 2.850458 -4.946097
H 8.893494 3.438141 -5.969615
H 9.928762 2.833021 -2.360376
H 8.534773 1.765460 -2.602225
H 8.513922 4.502674 -1.207117
H 8.365598 2.935014 -0.398216