31
H19 C10 N1 O1
C 1.130338 -0.455024 0.706936
C 2.012651 0.105570 -0.129646
C 2.056547 1.592188 -0.361936
C 3.026193 -0.722958 -0.881954
C 4.476503 -0.429314 -0.476201
N 5.420951 -1.281958 -1.179718
C 5.616567 -2.599925 -0.588265
C 6.583649 -2.590918 0.601156
C 7.918732 -1.956911 0.202831
C 7.713689 -0.577829 -0.431306
O 7.349428 0.400157 0.526871
C 6.685904 -0.676611 -1.566813
H 0.396741 0.147127 1.253163
H 1.109310 -1.537366 0.871831
H 1.228553 2.109841 0.143399
H 2.005809 1.819419 -1.439831
H 3.001611 2.024748 0.006347
H 2.934327 -0.528806 -1.964873
H 2.815520 -1.792405 -0.724935
H 4.551918 -0.521256 0.629383
H 4.717286 0.617936 -0.710710
H 6.017367 -3.273188 -1.367958
H 4.640827 -3.011850 -0.288824
H 6.738854 -3.617765 0.967865
H 6.131339 -2.033863 1.441347
H 8.422580 -2.605774 -0.533894
H 8.592346 -1.865984 1.069685
H 8.668101 -0.227999 -0.857585
H 6.591718 0.071786 1.024184
H 7.130806 -1.285979 -2.374906
H 6.498785 0.325871 -1.981462