29
H16 C8 N1 O1 F3
O 0.544343 -0.965228 -0.625952
C 1.843351 -0.580840 -0.250193
C 2.662172 -1.848947 -0.070288
N 4.052433 -1.580060 0.245328
C 4.268522 -0.973620 1.557010
C 4.683981 0.494049 1.489776
C 4.902285 1.102272 2.870723
C 5.320510 2.552420 2.793793
F 5.508222 3.067670 4.070546
C 4.962907 -2.647875 -0.092937
C 6.317026 -2.139390 -0.534232
F 7.004681 -1.579863 0.503256
F 7.071310 -3.184929 -0.969981
H 0.005801 -0.170530 -0.701620
H 1.830884 0.004615 0.689226
H 2.331833 0.047598 -1.020758
H 2.614435 -2.405769 -1.018423
H 2.167449 -2.479774 0.700375
H 5.045589 -1.536457 2.100541
H 3.349449 -1.064939 2.165732
H 3.912495 1.066089 0.947606
H 5.609266 0.571661 0.895939
H 5.679427 0.537648 3.413346
H 3.976564 1.031427 3.466855
H 4.550991 3.163540 2.293815
H 6.268251 2.665066 2.241942
H 4.564076 -3.206288 -0.951668
H 5.125086 -3.378023 0.727898
H 6.247800 -1.390033 -1.338345