35
H23 C10 N1 O1
C 1.079867 0.616905 0.285355
C 2.515718 0.208038 -0.020949
C 3.125621 1.044945 -1.141326
N 4.547051 0.813905 -1.351269
C 4.829486 -0.532198 -1.809843
C 5.150500 1.820472 -2.206897
C 6.634617 2.005663 -1.930772
O 7.116750 3.011818 -2.775755
C 8.483591 3.278109 -2.620834
C 8.899087 4.423882 -3.534757
C 8.122212 5.699445 -3.216300
C 10.407488 4.645093 -3.446356
H 0.649124 -0.005605 1.084331
H 0.435855 0.509862 -0.602801
H 1.022459 1.667852 0.612334
H 2.536650 -0.861267 -0.286637
H 3.144905 0.320962 0.878397
H 2.994668 2.109278 -0.885848
H 2.545313 0.875391 -2.079240
H 4.541716 -1.277190 -1.054186
H 5.905686 -0.660319 -1.992226
H 4.295563 -0.780426 -2.754881
H 4.658745 2.787182 -2.019177
H 5.008450 1.596862 -3.287272
H 7.193114 1.062847 -2.097147
H 6.774193 2.277747 -0.864931
H 9.079856 2.372123 -2.855757
H 8.707979 3.542627 -1.564921
H 8.651836 4.115299 -4.566223
H 8.347385 6.048478 -2.193891
H 7.038050 5.528865 -3.283433
H 8.386676 6.510008 -3.913630
H 10.704980 4.936320 -2.424781
H 10.728129 5.448557 -4.127430
H 10.968161 3.735120 -3.713256