39
H25 C12 N1 O1
C 5.296618 6.400765 0.245430
C 4.431102 5.261842 -0.245409
O 5.248456 4.247596 -0.763539
C 4.537595 3.146913 -1.257942
C 5.508511 2.086611 -1.766104
N 6.191126 1.442537 -0.646224
C 6.107747 -0.007662 -0.548839
C 7.225117 -0.506774 0.360328
C 4.751713 -0.437337 -0.015530
C 3.588877 -0.698799 -0.933802
C 4.267351 -1.842625 -0.230139
C 6.505194 2.633833 -2.811695
C 7.351873 1.508818 -3.408195
C 5.816417 3.431276 -3.918701
H 4.671853 7.204901 0.661885
H 5.895199 6.818395 -0.578700
H 5.984841 6.053923 1.031446
H 3.726617 5.622140 -1.023447
H 3.809130 4.867057 0.584214
H 3.845489 3.463713 -2.064697
H 3.914218 2.694653 -0.460905
H 4.883664 1.331811 -2.274781
H 7.160419 1.743042 -0.603540
H 6.236031 -0.490675 -1.543155
H 7.135263 -0.056709 1.362395
H 8.213928 -0.238668 -0.045812
H 7.186779 -1.600669 0.467380
H 4.508368 0.018160 0.951452
H 3.757087 -0.602319 -2.010587
H 2.590049 -0.400990 -0.603398
H 4.895106 -2.505144 -0.834751
H 3.739560 -2.341418 0.586900
H 7.178120 3.324404 -2.272296
H 6.722039 0.795454 -3.966296
H 7.894654 0.945394 -2.634205
H 8.100868 1.911323 -4.108319
H 5.041093 2.828176 -4.421488
H 6.545355 3.738991 -4.684926
H 5.341783 4.344222 -3.530497