34
H21 C10 N1 O2
C 10.889098 -1.653226 2.777784
O 10.310690 -2.409613 1.757312
C 8.916072 -2.502868 1.856241
C 8.367975 -3.253771 0.655370
C 6.832707 -3.389618 0.698499
C 6.416858 -3.048054 -0.738262
N 7.354501 -2.025168 -1.192536
C 7.078720 -0.630173 -0.812009
C 5.589941 -0.296262 -0.820721
C 7.784798 0.326480 -1.772186
O 9.178611 0.251904 -1.650681
C 9.857241 1.069915 -2.556313
C 8.638696 -2.530380 -0.696483
H 11.977197 -1.639122 2.620080
H 10.687241 -2.081996 3.779415
H 10.522381 -0.607615 2.777825
H 8.464481 -1.489523 1.903973
H 8.628773 -3.023230 2.794403
H 8.843010 -4.247817 0.643899
H 6.399975 -2.653094 1.397497
H 6.495423 -4.386351 1.018322
H 5.369142 -2.743096 -0.841484
H 6.553411 -3.938617 -1.377604
H 7.465019 -0.407117 0.204067
H 5.130465 -0.547917 -1.790326
H 5.448214 0.780323 -0.646639
H 5.041593 -0.826210 -0.029903
H 7.449305 1.362960 -1.563308
H 7.471469 0.079112 -2.807646
H 10.936045 0.953204 -2.380055
H 9.594440 2.138388 -2.426234
H 9.641234 0.793646 -3.606942
H 9.366857 -1.718514 -0.601715
H 9.044707 -3.252061 -1.425330