33
H20 C10 N1 O1 F1
C 0.887464 -0.114731 -0.157820
C 2.351869 -0.249301 -0.555375
C 3.074393 -1.343769 0.234827
O 2.508942 -2.615198 -0.014429
C 4.606134 -1.318733 0.033313
C 4.979484 -1.604681 -1.426380
C 6.485275 -1.609884 -1.659989
C 7.151958 -2.578385 -0.694023
C 6.753825 -2.246393 0.734704
N 5.307381 -2.249602 0.924477
C 4.948682 -2.154256 2.331913
C 4.041983 -3.303130 2.734125
F 3.721599 -3.198462 4.082717
H 0.373103 0.639927 -0.772038
H 0.786973 0.184922 0.898026
H 0.362026 -1.073223 -0.284217
H 2.876573 0.708148 -0.401764
H 2.418875 -0.471807 -1.634165
H 2.868731 -1.151324 1.299001
H 2.628347 -2.821440 -0.949319
H 4.922658 -0.274117 0.264736
H 4.501770 -0.858666 -2.077954
H 4.575186 -2.593497 -1.706626
H 6.884768 -0.593723 -1.493634
H 6.708988 -1.873913 -2.705631
H 8.248986 -2.542436 -0.785440
H 6.836138 -3.610347 -0.925019
H 7.190512 -1.257905 1.010034
H 7.190717 -2.987440 1.421290
H 4.465638 -1.192140 2.583655
H 5.856081 -2.203815 2.953998
H 4.559025 -4.263185 2.574359
H 3.110715 -3.305914 2.150389