36
H23 C11 N1 O1
C 0.968834 -0.113333 -0.328057
O 2.360482 -0.077568 -0.218477
C 2.982029 -1.254426 -0.645746
C 4.489172 -1.147532 -0.438068
C 4.819885 -0.956974 1.036898
N 5.096923 -2.345325 -1.003215
C 6.561647 -2.362999 -1.085606
C 7.177679 -3.208689 0.042527
C 7.172148 -4.725112 -0.177267
C 8.408968 -5.242285 -0.918096
C 8.533997 -4.834799 -2.386380
C 8.386038 -3.340016 -2.689876
C 6.959623 -2.814407 -2.500295
H 0.573195 0.848209 0.029032
H 0.525765 -0.923754 0.283423
H 0.638738 -0.260285 -1.375341
H 2.768081 -1.436180 -1.720426
H 2.597959 -2.133980 -0.087666
H 4.825355 -0.233874 -0.977621
H 4.524430 -1.846510 1.617321
H 4.273693 -0.087274 1.428655
H 5.894071 -0.780431 1.195210
H 4.714994 -2.476717 -1.936970
H 6.945928 -1.331655 -0.952347
H 6.631122 -2.966772 0.964856
H 8.216975 -2.879163 0.214391
H 6.247606 -5.021106 -0.704595
H 7.131505 -5.226466 0.803282
H 8.432144 -6.343832 -0.862576
H 9.303042 -4.892914 -0.370341
H 7.773214 -5.376862 -2.976766
H 9.511508 -5.183501 -2.760177
H 8.676503 -3.178866 -3.740429
H 9.099106 -2.750773 -2.086753
H 6.261878 -3.611314 -2.815830
H 6.775051 -1.967754 -3.181826