26
H15 C7 N1 O1 F2
C 0.757997 -0.374036 -0.052685
C 2.251504 -0.083846 0.030626
C 2.907305 -0.770782 1.223740
N 4.345158 -0.556980 1.302313
C 4.738029 0.825838 1.543507
C 5.375654 1.483867 0.321928
O 5.792954 2.800779 0.582685
C 5.050478 -1.536291 2.095015
C 6.437443 -1.824020 1.565860
F 7.270114 -0.756572 1.736228
F 6.985843 -2.850241 2.271917
H 0.301714 0.128048 -0.919256
H 0.231416 -0.024052 0.850107
H 0.564366 -1.454449 -0.152274
H 2.407311 1.006152 0.091965
H 2.759109 -0.421262 -0.888827
H 2.729263 -1.854617 1.137678
H 2.396191 -0.441208 2.156564
H 5.459215 0.882598 2.375014
H 3.860454 1.424010 1.856108
H 4.675994 1.435794 -0.534160
H 6.272362 0.913271 0.036456
H 5.006824 3.328658 0.765646
H 4.513153 -2.494342 2.048326
H 5.145270 -1.264098 3.167465
H 6.437669 -2.086697 0.496434