20
H12 C6 O2
C 1.232919 -0.017367 1.499347
C 0.986810 -0.002559 -0.011627
C 2.308294 -0.000871 -0.775181
C 0.147845 -1.224841 -0.420096
O -1.159181 -1.152778 0.112052
C -1.807510 0.011326 -0.289816
O -1.149755 1.162336 0.133852
C 0.157751 1.233782 -0.397217
H 1.802245 -0.913381 1.794656
H 0.282719 -0.018752 2.052127
H 1.809022 0.868802 1.810819
H 2.903522 -0.894946 -0.529449
H 2.910073 0.884492 -0.514329
H 2.146960 0.008986 -1.865244
H 0.599574 -2.156919 -0.048210
H 0.098245 -1.287206 -1.526857
H -2.806069 0.011054 0.168023
H -1.905138 0.022211 -1.399720
H 0.616990 2.155184 -0.008312
H 0.108524 1.317066 -1.502618