33
H21 C10 N1 O1
C 0.718502 0.571898 0.360972
O 1.941120 -0.105598 0.396201
C 2.790927 0.288816 1.437435
C 3.444412 1.664630 1.294778
C 4.668536 1.593404 2.231866
C 4.964266 0.087756 2.441870
C 3.997795 -0.654161 1.507906
N 3.754364 -2.043428 1.846323
C 2.887966 -2.306523 2.981814
C 2.931285 -3.778468 3.405364
C 4.331956 -4.195614 3.847298
C 1.896773 -4.051352 4.495008
H 0.104970 0.123883 -0.434070
H 0.836791 1.649113 0.139008
H 0.169524 0.479402 1.318658
H 2.239397 0.252127 2.401008
H 2.770606 2.499002 1.537403
H 3.757317 1.782866 0.243895
H 4.448722 2.080780 3.193322
H 5.528363 2.125585 1.800013
H 4.769040 -0.202968 3.485825
H 6.009007 -0.179778 2.227540
H 4.430808 -0.653614 0.492075
H 3.372846 -2.516651 1.030348
H 1.832556 -2.025606 2.784233
H 3.215388 -1.687231 3.835542
H 2.657905 -4.380212 2.518052
H 4.630927 -3.649603 4.758840
H 5.071380 -3.971724 3.064889
H 4.378618 -5.273175 4.071592
H 2.113168 -3.457343 5.399409
H 1.895205 -5.113218 4.787493
H 0.878791 -3.793424 4.161529