31
H19 C9 N1 F2
C 0.892973 0.220073 -0.135560
C 2.385093 -0.087767 -0.082892
C 3.120344 0.340664 -1.349873
C 4.643425 0.188568 -1.308405
C 5.076328 -1.259705 -1.095583
N 5.191332 0.707751 -2.559931
C 6.611173 1.005525 -2.535531
C 7.048871 1.585459 -3.874342
C 8.544490 1.771417 -4.020714
C 9.224117 2.688960 -3.038008
F 9.154285 0.538956 -3.967476
F 8.788493 2.231802 -5.292283
H 0.381740 -0.105959 0.783466
H 0.411120 -0.291465 -0.984806
H 0.711113 1.300781 -0.254069
H 2.524775 -1.168328 0.085143
H 2.836254 0.418914 0.788447
H 2.888326 1.403034 -1.549347
H 2.735571 -0.226562 -2.216833
H 5.015382 0.783452 -0.443137
H 4.671112 -1.901627 -1.895081
H 4.724603 -1.643690 -0.126820
H 6.172059 -1.359166 -1.102663
H 4.691633 1.563615 -2.798366
H 7.175901 0.077818 -2.352858
H 6.880481 1.703173 -1.713843
H 6.572848 2.564708 -4.042470
H 6.722084 0.915493 -4.684819
H 9.143266 2.287035 -2.019432
H 8.757946 3.683039 -3.067772
H 10.286983 2.778481 -3.303153