33
H21 C10 N1 O1
C 0.195128 -0.179016 0.858176
C 1.581307 0.248815 0.430569
O 2.476580 0.049983 1.492288
C 3.796247 0.413378 1.197424
C 4.643904 0.144949 2.441614
N 6.053726 0.442052 2.373561
C 6.465664 1.832331 2.347083
C 6.705022 2.388042 0.938465
C 7.662071 1.482813 0.164161
C 7.171806 0.031291 0.149261
C 8.152322 -0.899995 -0.553164
C 6.907354 -0.430735 1.593496
H -0.521873 -0.029245 0.037298
H -0.142933 0.408598 1.725475
H 0.185598 -1.243891 1.136974
H 1.577442 1.315739 0.126384
H 1.905053 -0.330851 -0.458278
H 3.851433 1.484144 0.914393
H 4.177225 -0.169828 0.334722
H 4.519619 -0.920446 2.701559
H 4.200499 0.721077 3.272276
H 7.413405 1.929122 2.913956
H 5.715217 2.435602 2.881302
H 7.110856 3.410618 1.009262
H 5.746509 2.459605 0.397566
H 8.659334 1.513469 0.643165
H 7.797990 1.849828 -0.866803
H 6.212374 0.004864 -0.397119
H 9.124890 -0.914626 -0.032468
H 8.335389 -0.578755 -1.590856
H 7.774291 -1.934721 -0.583459
H 7.892930 -0.506833 2.098511
H 6.475142 -1.444490 1.593805