26
H17 C8 N1
C 1.670010 -0.034995 -0.855807
C 2.652979 -0.203192 0.292616
C 3.657328 -1.332326 0.088411
C 4.751830 -1.002438 1.101268
C 4.713625 0.542962 1.270745
C 4.589414 0.900163 2.759931
C 5.960849 1.207207 0.681713
N 3.531818 0.943386 0.471932
C 2.892966 2.187718 0.815730
H 1.130145 -0.977788 -1.034663
H 2.205587 0.241453 -1.778697
H 0.916997 0.740508 -0.648543
H 2.067265 -0.408046 1.221472
H 4.043302 -1.284295 -0.943487
H 3.214121 -2.327970 0.237692
H 5.745581 -1.354762 0.787862
H 4.527157 -1.487223 2.063828
H 5.428575 0.463345 3.323827
H 3.655112 0.502705 3.187925
H 4.608728 1.988373 2.926635
H 6.864719 0.929985 1.247651
H 5.872881 2.305585 0.707915
H 6.097412 0.902058 -0.367354
H 3.644491 2.982103 0.940590
H 2.289719 2.144094 1.748886
H 2.220609 2.511891 0.006142