35
H23 C10 N1 O1
C 14.217381 6.375685 -4.751150
C 13.748332 5.305067 -3.791519
O 12.563080 4.733232 -4.278048
C 12.045097 3.724363 -3.459742
C 10.771642 3.185843 -4.086648
N 10.214659 2.143381 -3.252061
C 9.101547 1.342802 -3.761481
C 9.538498 0.464624 -4.931177
C 7.753470 2.109770 -4.001058
C 6.611866 1.332964 -3.335881
C 7.359542 2.417566 -5.457272
C 8.194666 3.442644 -6.215088
H 15.147327 6.835998 -4.385620
H 13.457231 7.165079 -4.855207
H 14.410234 5.947863 -5.746897
H 13.580083 5.738883 -2.784296
H 14.529594 4.526439 -3.672722
H 11.828151 4.117245 -2.443306
H 12.772497 2.896866 -3.332627
H 11.026962 2.770808 -5.073884
H 10.086498 4.037903 -4.267950
H 9.938371 2.546892 -2.358619
H 8.891000 0.646365 -2.932776
H 9.775431 1.040571 -5.837867
H 8.746646 -0.253352 -5.193180
H 10.436409 -0.106780 -4.650542
H 7.848442 3.076016 -3.471971
H 6.490409 0.339772 -3.801641
H 5.650924 1.862849 -3.431235
H 6.802930 1.175856 -2.262575
H 6.319004 2.784383 -5.437312
H 7.321988 1.474652 -6.029523
H 8.245716 4.398215 -5.668763
H 7.745394 3.649028 -7.199516
H 9.225578 3.105199 -6.391185