29
H18 C8 N1 O1 F1
C 0.955141 0.285898 0.003134
C 2.460255 0.030278 -0.055180
C 3.215125 1.298432 -0.454587
C 2.947546 -0.542406 1.277815
N 4.357571 -0.897943 1.250611
C 4.876266 -1.528592 2.459690
C 4.604838 -3.036015 2.471164
O 3.241790 -3.387494 2.504157
C 6.379031 -1.244813 2.546297
C 7.043851 -1.698552 3.828784
F 8.335306 -1.188491 3.877648
H 0.573207 0.642275 -0.966416
H 0.713756 1.053338 0.758184
H 0.401618 -0.629255 0.267406
H 2.653038 -0.738601 -0.824699
H 3.108781 2.079398 0.318069
H 2.825176 1.708150 -1.399820
H 4.290305 1.111323 -0.603151
H 2.371690 -1.449637 1.505298
H 2.717440 0.189815 2.086748
H 4.898233 -0.052686 1.080594
H 4.397565 -1.098766 3.370039
H 5.138830 -3.498852 3.322197
H 5.019970 -3.467633 1.546204
H 2.871707 -3.055622 3.331172
H 6.527837 -0.154725 2.472567
H 6.889864 -1.700141 1.681180
H 7.122288 -2.793898 3.901437
H 6.498644 -1.325246 4.711298