34
H21 C11 N1 O1
C 12.155883 5.717350 -5.762153
C 12.565283 4.512320 -5.366079
C 11.919174 3.224830 -5.775267
O 11.563320 2.510838 -4.621010
C 10.863522 1.319940 -4.871905
C 10.279005 0.789785 -3.567310
N 9.149943 1.492172 -2.995393
C 7.907665 1.334820 -3.712146
C 9.396820 2.814138 -2.410800
C 8.669801 2.931147 -1.070012
C 9.107829 3.963195 -3.378370
C 7.828901 4.753955 -3.377431
C 9.119511 5.404888 -2.954304
H 12.673117 6.628704 -5.447842
H 11.290286 5.837960 -6.423266
H 13.429624 4.416843 -4.697558
H 12.624131 2.629221 -6.392997
H 11.029696 3.426496 -6.405556
H 11.540524 0.557763 -5.309131
H 10.056309 1.493111 -5.611966
H 11.094571 0.756371 -2.824338
H 9.974166 -0.255841 -3.746249
H 7.700472 0.263381 -3.870176
H 7.878117 1.826193 -4.707811
H 7.071363 1.746890 -3.126383
H 10.478265 2.854059 -2.207466
H 7.582480 2.798319 -1.183295
H 8.840634 3.905986 -0.588099
H 9.032771 2.148589 -0.387656
H 9.545712 3.783842 -4.362870
H 7.090864 4.546774 -2.597262
H 7.395124 5.033180 -4.341818
H 9.248712 5.636381 -1.892882
H 9.585062 6.128130 -3.630138