31
H19 C9 N1 O2
C 0.901849 0.167715 -0.158415
C 2.414313 0.069563 0.000799
C 3.082095 -0.745349 -1.102860
C 4.594504 -0.840738 -0.955146
N 5.167819 -1.670769 -2.001794
C 6.622211 -1.682287 -2.068476
C 7.244405 -2.254272 -0.800278
C 6.999849 -2.512438 -3.289733
O 8.407244 -2.428326 -3.473555
C 9.050856 -3.129532 -4.419150
C 8.237391 -4.050862 -5.286529
O 10.242998 -2.990295 -4.522202
H 0.448415 0.758491 0.652532
H 0.434373 -0.830417 -0.146290
H 0.631623 0.648326 -1.112903
H 2.653560 -0.381549 0.979612
H 2.849575 1.084021 0.018445
H 2.842350 -0.296792 -2.084613
H 2.665023 -1.767400 -1.119698
H 4.828782 -1.280862 0.028522
H 5.028690 0.183870 -0.946940
H 4.808892 -1.339465 -2.897105
H 7.035008 -0.660958 -2.224079
H 6.795288 -3.232846 -0.563665
H 7.097580 -1.588071 0.062096
H 8.327111 -2.386790 -0.936460
H 6.482863 -2.121087 -4.182090
H 6.683903 -3.556895 -3.134937
H 7.767297 -4.838220 -4.678307
H 8.899993 -4.512049 -6.027246
H 7.433309 -3.504904 -5.801205