34
H21 C11 N1 O1
C 0.933925 0.299638 -0.202640
C 2.022951 -0.054579 0.482132
C 3.133426 0.833141 0.992705
C 3.096941 2.284408 0.500606
C 3.551349 2.429203 -0.949533
N 4.871305 1.848014 -1.155406
C 5.379525 2.093546 -2.490640
C 6.897543 2.037217 -2.560813
O 7.288083 2.348113 -3.868046
C 8.677174 2.322693 -4.064909
C 8.984464 2.673066 -5.503596
C 4.882609 0.435949 -0.796895
C 4.513756 0.237565 0.667463
H 0.184150 -0.444737 -0.487221
H 0.737396 1.332961 -0.504947
H 2.143065 -1.114361 0.745299
H 3.028802 0.837546 2.092808
H 3.775805 2.878815 1.133904
H 2.092129 2.719004 0.618870
H 3.595299 3.498482 -1.209455
H 2.804458 1.965833 -1.631547
H 5.074036 3.104147 -2.803720
H 4.954622 1.387671 -3.238338
H 7.274711 1.035013 -2.274451
H 7.320177 2.759349 -1.832752
H 9.081278 1.319154 -3.818998
H 9.174831 3.039446 -3.379911
H 8.513831 1.951320 -6.188691
H 10.070729 2.657908 -5.677085
H 8.608303 3.678274 -5.748129
H 5.885488 0.022385 -0.978051
H 4.180258 -0.139909 -1.443911
H 5.274925 0.733845 1.291409
H 4.539593 -0.836030 0.913847