27
H17 C7 N1 O2
C 0.968440 0.071263 0.146803
C 2.475701 -0.050936 0.142817
O 3.016652 0.909384 -0.726129
C 4.412147 0.880258 -0.799276
C 4.877999 1.958548 -1.759809
N 6.324163 1.966781 -1.851867
C 6.854483 3.014612 -2.699728
C 8.379657 3.111510 -2.634227
C 9.081208 1.841685 -3.096907
O 8.820541 4.238511 -3.364293
H 0.526635 -0.674822 0.823897
H 0.561901 -0.092898 -0.862920
H 0.660208 1.072326 0.485366
H 2.777982 -1.069788 -0.175591
H 2.875663 0.090841 1.167723
H 4.766540 -0.113463 -1.147433
H 4.870876 1.051389 0.195861
H 4.537313 2.937188 -1.381819
H 4.375656 1.805540 -2.738965
H 6.633869 1.060977 -2.201525
H 6.445294 3.981409 -2.363422
H 6.555639 2.901829 -3.767978
H 8.657586 3.308349 -1.585442
H 8.784430 1.586704 -4.128973
H 8.839537 0.985643 -2.448433
H 10.171982 1.984235 -3.076050
H 8.630306 4.072468 -4.296219