27
H16 C8 N1 O1 F1
C 3.034072 0.159095 1.704209
C 2.501407 0.191874 0.280600
O 1.089868 0.268925 0.248449
C 2.972923 -1.008886 -0.550052
N 4.415550 -1.073691 -0.702540
C 4.963729 -2.418279 -0.813315
C 4.717830 -3.064623 -2.181502
C 5.235646 -2.173376 -3.298133
F 6.638593 -2.143843 -3.221821
C 4.719803 -0.750566 -3.164780
C 4.948373 -0.206958 -1.748141
H 4.132930 0.127766 1.705632
H 2.668714 -0.739555 2.231021
H 2.703059 1.046465 2.264467
H 2.850006 1.117097 -0.208044
H 0.747624 -0.505696 0.712191
H 2.427424 -0.977294 -1.515291
H 2.636759 -1.924686 -0.033415
H 4.546282 -3.046530 -0.012140
H 6.051886 -2.361466 -0.639853
H 3.638372 -3.222605 -2.340356
H 5.203358 -4.051360 -2.240440
H 4.990006 -2.592075 -4.286975
H 3.644483 -0.755895 -3.405841
H 5.212789 -0.106501 -3.909496
H 4.508171 0.796675 -1.654895
H 6.032392 -0.091330 -1.580619