36
H23 C11 N1 O1
C 0.945146 0.047620 1.495950
C 2.077631 0.098681 0.495512
O 3.091656 0.938331 0.991264
C 4.203004 1.034773 0.151766
C 5.306680 1.891558 0.781118
N 6.019369 0.674884 1.181006
C 7.461696 0.659620 1.083297
C 8.175261 -0.396816 1.937792
C 7.594520 -1.812737 1.755899
C 6.468158 -2.148011 2.729814
C 9.680727 -0.346160 1.638497
C 10.553409 -1.027898 2.686073
C 5.209025 -0.130698 0.259824
H 0.135598 -0.597767 1.123976
H 0.534572 1.053972 1.670302
H 1.295312 -0.354929 2.458716
H 1.714403 0.478567 -0.481101
H 2.470788 -0.920827 0.313023
H 3.897079 1.307618 -0.874247
H 4.990084 2.551079 1.606340
H 5.846559 2.491995 0.023317
H 7.822632 1.652766 1.399112
H 7.779563 0.535314 0.021037
H 8.034600 -0.109055 2.996563
H 8.396034 -2.558958 1.882663
H 7.249155 -1.931938 0.713786
H 6.852815 -2.197900 3.761852
H 6.007929 -3.121876 2.499259
H 5.681926 -1.379025 2.711838
H 9.993738 0.708661 1.549711
H 9.862044 -0.799783 0.647113
H 10.436914 -0.546515 3.670737
H 11.618724 -0.974773 2.412698
H 10.298912 -2.092868 2.806492
H 4.822583 -1.080321 0.665405
H 5.721044 -0.335142 -0.701683