34
H23 C10 N1
C 0.792839 0.374808 0.186222
C 2.310959 0.241526 0.198158
C 3.010974 1.260494 -0.696275
C 4.528944 1.137873 -0.683829
N 5.141273 2.101783 -1.580987
C 6.600668 2.151370 -1.556416
C 7.193340 0.916093 -2.229714
C 7.049817 3.450990 -2.231091
C 8.553488 3.707761 -2.221418
C 8.929900 5.084821 -2.764412
C 10.432698 5.337283 -2.777103
H 0.316880 -0.374184 0.838026
H 0.388824 0.238210 -0.830187
H 0.477094 1.371131 0.536579
H 2.594077 -0.776505 -0.121974
H 2.682068 0.349292 1.232415
H 2.728241 2.281081 -0.378223
H 2.657341 1.152680 -1.736516
H 4.804515 0.117609 -1.000164
H 4.897153 1.242951 0.361904
H 4.787386 3.026409 -1.337942
H 6.974082 2.173515 -0.506506
H 6.889003 0.875139 -3.288689
H 6.857329 -0.011686 -1.743121
H 8.292165 0.924319 -2.181962
H 6.545301 4.291625 -1.720681
H 6.674615 3.452619 -3.270429
H 9.072787 2.937353 -2.816790
H 8.936565 3.606763 -1.189507
H 8.429805 5.862187 -2.160352
H 8.528663 5.191333 -3.787640
H 10.857168 5.267194 -1.762126
H 10.671329 6.337951 -3.169805
H 10.956101 4.598560 -3.405995