34
H22 C10 N2
C 0.829204 0.251265 0.230520
C 2.342658 0.056070 0.263258
N 2.704606 -1.261469 -0.260644
C 2.523638 -2.365669 0.664472
C 2.951778 -3.684460 0.034505
C 2.786002 -4.863805 0.985949
N 3.019816 -6.160096 0.370458
C 4.395682 -6.357253 -0.033320
C 2.565342 -7.238617 1.221120
C 3.128773 1.104626 -0.511686
C 2.809043 1.431849 -1.944826
C 2.595171 2.462720 -0.870079
H 0.322975 -0.566758 0.763901
H 0.446703 0.259635 -0.802439
H 0.536307 1.189531 0.724165
H 2.659819 0.146021 1.326032
H 3.682754 -1.239950 -0.545499
H 1.458727 -2.430384 0.944929
H 3.080017 -2.213356 1.616697
H 4.003290 -3.594269 -0.287503
H 2.354392 -3.865963 -0.874304
H 1.751215 -4.859791 1.367509
H 3.443905 -4.716994 1.875545
H 4.706009 -5.602883 -0.770706
H 4.509971 -7.344855 -0.505992
H 5.107817 -6.308251 0.822386
H 1.496907 -7.115886 1.457622
H 3.119922 -7.296481 2.185621
H 2.689474 -8.205466 0.708837
H 4.199312 1.076058 -0.277307
H 1.921356 0.971483 -2.388311
H 3.641861 1.566026 -2.640311
H 1.564004 2.706142 -0.601818
H 3.284460 3.309701 -0.817363