30
H19 C9 N1 O1
C 1.799750 -1.182266 0.739147
C 2.616193 -0.171297 -0.056732
C 3.225301 -0.758784 -1.326324
C 4.024748 0.266325 -2.126648
N 4.653965 -0.300376 -3.309642
C 3.998803 -0.244840 -4.488542
O 2.887529 0.237415 -4.647705
C 5.985824 -0.869626 -3.129465
C 6.459155 -1.830248 -4.212038
C 7.781604 -2.493787 -3.831752
C 8.299409 -3.442753 -4.905323
H 1.373962 -0.730276 1.648338
H 2.419811 -2.038738 1.050520
H 0.963967 -1.578863 0.140006
H 3.422904 0.234627 0.578603
H 1.978636 0.689071 -0.325452
H 2.426106 -1.161875 -1.971428
H 3.879167 -1.609064 -1.063769
H 4.814686 0.708597 -1.498005
H 3.362854 1.081768 -2.451422
H 4.566896 -0.682305 -5.334432
H 5.977473 -1.411016 -2.168950
H 6.718568 -0.049628 -3.016209
H 6.590383 -1.301696 -5.170639
H 5.691030 -2.605487 -4.377566
H 7.652988 -3.042972 -2.883075
H 8.536126 -1.712889 -3.633669
H 7.577842 -4.251929 -5.103500
H 9.249814 -3.909206 -4.603548
H 8.473814 -2.913272 -5.856029