20
H10 C5 N1 O1 F3
C 5.768203 -0.538845 -7.371380
C 4.977726 -0.178904 -6.125680
N 5.453930 -0.923451 -4.970947
C 4.763357 -0.585665 -3.746602
C 5.076490 -1.522713 -2.579121
O 4.174705 -1.350643 -1.524780
C 6.495635 -1.369006 -2.036159
F 6.708517 -0.130898 -1.562521
F 6.730670 -2.216293 -1.031997
F 7.427350 -1.598874 -2.972284
H 5.382970 -0.000174 -8.249986
H 5.708322 -1.619914 -7.571664
H 6.831724 -0.273474 -7.254230
H 3.911954 -0.422770 -6.277562
H 5.021043 0.919902 -5.963686
H 6.452781 -0.755768 -4.864859
H 3.680123 -0.691427 -3.915316
H 4.927864 0.463906 -3.416134
H 4.993605 -2.564171 -2.925269
H 4.149811 -0.411478 -1.295954