26
H16 C7 N1 O1 F1
C 1.284493 -0.369008 0.621867
O 2.590596 -0.312767 0.128048
C 2.884112 -1.224979 -0.913997
C 2.110603 -0.890563 -2.185428
C 4.408918 -1.187296 -1.096702
N 5.021686 -2.499277 -1.232261
C 4.618748 -3.195041 -2.438797
C 6.464831 -2.456031 -1.079611
C 6.999274 -3.750306 -0.492472
F 8.376839 -3.655573 -0.358844
H 1.247912 0.237885 1.538384
H 0.985258 -1.404333 0.878998
H 0.535634 0.036850 -0.083542
H 2.615224 -2.247071 -0.575300
H 2.289710 0.160277 -2.464446
H 1.027669 -1.036858 -2.058182
H 2.434277 -1.525948 -3.021826
H 4.811854 -0.719310 -0.188039
H 4.670792 -0.522695 -1.951487
H 3.541392 -3.415975 -2.425560
H 5.139712 -4.159480 -2.518862
H 4.840203 -2.613454 -3.361134
H 6.729215 -1.643679 -0.386229
H 6.988921 -2.244637 -2.036464
H 6.782870 -4.618787 -1.134052
H 6.561236 -3.926754 0.502529