27
H15 C8 N1 O1 F2
C 2.426941 0.769300 1.326794
C 2.172730 0.190478 -0.061912
C 2.875566 1.062154 -1.108851
C 2.751379 0.516194 -2.525593
C 3.235365 -0.924774 -2.577154
O 3.098128 -1.506437 -3.852199
C 2.504430 -1.743852 -1.518446
N 2.654291 -1.191265 -0.182383
C 2.195105 -2.127437 0.822936
C 3.340836 -2.971112 1.333144
F 4.221375 -2.199988 2.028357
F 2.868200 -3.905577 2.204983
H 2.216923 1.849207 1.320738
H 3.479622 0.621797 1.614174
H 1.791989 0.323796 2.105042
H 1.077971 0.229590 -0.267613
H 3.942592 1.134282 -0.834010
H 2.460791 2.080479 -1.056395
H 3.319053 1.133362 -3.239368
H 1.691897 0.538598 -2.842164
H 4.313494 -0.949950 -2.345679
H 2.168517 -1.441528 -4.104907
H 2.901578 -2.770338 -1.531590
H 1.428949 -1.810869 -1.810652
H 1.410824 -2.808999 0.442418
H 1.770673 -1.614565 1.695555
H 3.899353 -3.490527 0.538525