34
H21 C11 N1 O1
C 1.145684 -0.198041 2.066716
C 1.114122 0.036039 0.554446
C 0.509356 1.399568 0.185178
C -1.004338 1.442058 0.394673
C -1.706090 0.318750 -0.370181
C -1.145775 -1.064166 0.008125
N -1.768600 -2.216157 -0.633444
C -1.823619 -2.277288 -2.084001
C -3.154283 -1.792567 -2.657650
O -4.243704 -2.457347 -2.057009
C -4.257102 -2.269422 -0.659411
C -2.963048 -2.779818 -0.031833
C 0.376695 -1.083503 -0.198324
H 1.732589 0.585462 2.572355
H 1.609156 -1.169015 2.303887
H 0.140153 -0.195424 2.515725
H 2.161582 0.029513 0.207469
H 0.723779 1.605349 -0.878573
H 1.000291 2.199164 0.764673
H -1.401008 2.419415 0.075609
H -1.237406 1.352290 1.469914
H -1.564419 0.478108 -1.454272
H -2.790636 0.348498 -0.181700
H -1.331813 -1.202610 1.086763
H -1.682533 -3.327840 -2.403928
H -0.999458 -1.696725 -2.523645
H -3.203226 -2.002657 -3.737096
H -3.257436 -0.698402 -2.519050
H -5.121659 -2.825535 -0.265678
H -4.404613 -1.196902 -0.420843
H -2.944178 -3.879833 -0.161565
H -2.965202 -2.578974 1.050243
H 0.590832 -0.978336 -1.276307
H 0.762115 -2.069971 0.107313