31
H20 C9 N1 F1
C 0.824788 0.413261 -0.151337
C 2.345499 0.482932 -0.086623
C 3.019082 -0.077731 -1.338546
C 4.558139 -0.083366 -1.295223
C 5.131525 -1.434600 -0.848188
C 4.686081 -1.926911 0.525914
C 5.390434 -3.213549 0.941741
N 5.071892 0.255604 -2.624307
C 6.465690 0.646657 -2.677218
C 6.862892 0.919509 -4.113018
F 8.202677 1.269584 -4.168376
H 0.362426 0.844728 0.749988
H 0.477393 -0.629308 -0.238298
H 0.436152 0.964863 -1.023213
H 2.698720 -0.054643 0.807600
H 2.662698 1.531875 0.047099
H 2.688032 0.528584 -2.199811
H 2.650115 -1.099907 -1.537192
H 4.880676 0.681806 -0.552597
H 6.232890 -1.374462 -0.847657
H 4.864455 -2.182567 -1.616515
H 3.596515 -2.096034 0.530016
H 4.878870 -1.141993 1.278127
H 5.198369 -4.023218 0.218761
H 5.048029 -3.559985 1.929236
H 6.482220 -3.071964 0.996887
H 4.514039 1.025061 -2.991214
H 7.102158 -0.168767 -2.300429
H 6.695012 1.542622 -2.061103
H 6.275319 1.750042 -4.539052
H 6.707572 0.022338 -4.732704