31
H19 C10 N1 O1
C 3.108833 -1.183404 -2.301608
C 4.144370 -0.872659 -1.513455
C 4.914980 -1.904168 -0.738758
C 4.592290 0.558760 -1.324761
N 6.017572 0.741212 -1.559062
C 6.347034 0.615661 -2.962956
C 6.560484 1.955383 -0.973857
C 6.737141 1.897424 0.546723
O 5.506456 2.027209 1.243301
C 7.726610 2.905743 1.107484
C 9.043089 3.245329 0.471522
C 7.940938 4.269847 0.503816
H 2.754501 -2.214437 -2.402651
H 2.574259 -0.413452 -2.867885
H 4.485693 -2.909833 -0.854204
H 4.932383 -1.648828 0.334188
H 5.965397 -1.928764 -1.068858
H 4.389490 0.845632 -0.282531
H 3.985192 1.230803 -1.971854
H 5.968651 -0.339721 -3.357613
H 7.438449 0.629328 -3.105444
H 5.909323 1.428181 -3.585212
H 5.948907 2.850017 -1.232692
H 7.548145 2.116985 -1.430066
H 7.097750 0.884630 0.790846
H 5.177691 2.920405 1.076958
H 7.732991 2.872378 2.201768
H 9.293098 2.792968 -0.492487
H 9.900688 3.386029 1.134682
H 7.442121 4.504035 -0.440885
H 8.041854 5.121317 1.182019