38
H25 C11 N1 O1
C 0.969412 -1.210518 0.678789
C 2.324541 -1.886865 0.838915
C 3.482224 -0.890059 0.997757
N 3.493438 0.049990 -0.125967
C 3.390455 1.456167 0.210847
C 3.433131 2.327254 -1.036831
C 3.299941 3.814776 -0.732313
C 3.340684 4.674973 -1.980214
O 3.217629 6.024051 -1.621646
C 3.242802 6.891159 -2.714670
C 4.856316 -1.575454 1.172527
C 5.961080 -0.548027 1.431178
C 4.862360 -2.634260 2.276117
H 0.164260 -1.951041 0.552228
H 0.965382 -0.548292 -0.199961
H 0.723096 -0.598965 1.562814
H 2.530180 -2.525194 -0.039758
H 2.288934 -2.556240 1.712583
H 3.291990 -0.313500 1.924798
H 4.314270 -0.104229 -0.706980
H 4.186026 1.791635 0.912371
H 2.433083 1.622359 0.735169
H 2.628544 2.005768 -1.720434
H 4.384335 2.143552 -1.568985
H 4.110721 4.137091 -0.057043
H 2.351490 4.007841 -0.202744
H 2.522486 4.381517 -2.671361
H 4.291381 4.505096 -2.528646
H 3.141587 7.919697 -2.339105
H 2.412282 6.694681 -3.421729
H 4.192054 6.818935 -3.282144
H 5.081270 -2.083957 0.214915
H 5.791282 -0.024107 2.386937
H 6.019802 0.211855 0.637431
H 6.945444 -1.038385 1.489942
H 4.522167 -2.206177 3.234654
H 5.880917 -3.023865 2.430386
H 4.217415 -3.493219 2.041673