20
H12 C6 O2
C 1.118487 0.029193 0.093208
C 2.623910 -0.098119 0.039879
O 3.077694 0.321547 -1.222932
C 4.453765 0.241709 -1.366483
C 4.888964 0.667640 -2.754734
O 4.097017 0.863614 -3.645924
C 6.383809 0.826245 -2.932388
C 6.822338 0.937369 -4.382259
H 0.743682 -0.295223 1.075262
H 0.647605 -0.594927 -0.681525
H 0.810324 1.073441 -0.068263
H 2.929223 -1.147895 0.226383
H 3.091032 0.514084 0.837976
H 4.829697 -0.793883 -1.215433
H 4.991536 0.867586 -0.623421
H 6.887847 -0.008318 -2.416491
H 6.668245 1.731207 -2.365650
H 6.568205 0.026879 -4.946240
H 7.910100 1.085736 -4.448432
H 6.329890 1.785284 -4.879985