33
H20 C10 N1 O1 F1
C 2.915565 0.089281 1.407373
C 2.456040 -0.052993 -0.028097
C 3.100915 0.974495 -0.954500
N 2.698338 0.757875 -2.334014
C 3.239726 1.741395 -3.255583
C 2.663202 3.141177 -3.074036
C 3.125991 4.106764 -4.160942
C 2.572521 5.517030 -3.980335
C 3.030647 6.456897 -5.071938
F 2.504027 7.726103 -4.865133
C 3.012249 -0.602029 -2.735999
C 2.362405 -1.591753 -1.785152
O 2.760836 -1.366465 -0.456133
H 2.659625 1.084567 1.799671
H 4.005975 -0.046384 1.480157
H 2.430230 -0.668534 2.039719
H 1.356985 0.093898 -0.083083
H 4.208855 0.910294 -0.842366
H 2.794871 1.978870 -0.627290
H 3.008088 1.398098 -4.277740
H 4.351869 1.787017 -3.188658
H 2.947770 3.550131 -2.090376
H 1.561987 3.069514 -3.078385
H 2.823581 3.717766 -5.149307
H 4.229784 4.144841 -4.170845
H 2.889940 5.924475 -3.005661
H 1.469771 5.490534 -3.975050
H 2.695723 6.110690 -6.063697
H 4.129467 6.546379 -5.086826
H 4.112194 -0.780314 -2.746981
H 2.638968 -0.780196 -3.756970
H 2.653435 -2.619944 -2.045244
H 1.259980 -1.511520 -1.874259