32
H19 C9 N1 O1 F2
C 3.620397 2.944763 -1.516136
C 3.705201 1.661053 -0.697931
C 4.293543 1.883024 0.692916
C 4.509984 0.610263 1.520734
C 3.195352 -0.071629 1.890999
N 5.266695 0.911624 2.743445
C 6.655528 0.478093 2.803035
C 7.565913 1.294844 1.879660
O 7.364788 1.064440 0.506693
C 7.131712 0.599154 4.256680
C 8.254674 -0.328123 4.641789
F 9.418295 -0.021313 3.997205
F 8.515529 -0.197495 5.972737
H 3.192608 2.762248 -2.514368
H 4.617001 3.394453 -1.656638
H 2.987530 3.695332 -1.014602
H 4.327182 0.923585 -1.236092
H 2.699428 1.214581 -0.621299
H 3.650359 2.572041 1.270984
H 5.270891 2.376713 0.583041
H 5.092831 -0.094132 0.897380
H 2.583190 0.588766 2.528699
H 3.381898 -1.005791 2.444515
H 2.602024 -0.324969 1.000629
H 4.776624 0.509467 3.537744
H 6.758144 -0.589332 2.493656
H 8.616740 1.104001 2.156042
H 7.364523 2.363561 2.058192
H 7.551719 0.134604 0.331183
H 6.299947 0.341101 4.929949
H 7.432010 1.633366 4.492966
H 8.033489 -1.388412 4.440243