27
H17 C8 N1 O1
C 8.816576 -1.806034 6.462887
C 9.092241 -0.978481 5.452922
C 8.105936 -0.503681 4.428160
C 8.511691 -0.959838 3.013328
N 7.652632 -0.555252 1.910390
C 7.363461 0.860898 1.853594
C 6.535878 -1.433945 1.555628
C 5.572887 -1.815930 2.676525
C 7.103335 -2.671811 0.846275
O 8.069313 -2.291395 -0.090030
H 9.589140 -2.122573 7.170282
H 7.804602 -2.195485 6.623160
H 10.122572 -0.617786 5.330303
H 8.071919 0.599052 4.451997
H 7.098640 -0.864363 4.682039
H 8.594396 -2.058084 3.004294
H 9.529346 -0.576340 2.814584
H 8.291051 1.436065 2.004196
H 6.629665 1.206433 2.609899
H 6.966653 1.123338 0.860590
H 5.967236 -0.874646 0.794057
H 6.062221 -2.445942 3.435658
H 4.726130 -2.387954 2.265540
H 5.163703 -0.924710 3.175757
H 6.284381 -3.205079 0.334739
H 7.518507 -3.376588 1.598160
H 8.428139 -1.472020 0.298167