33
H21 C10 N1 O1
C 1.022086 -0.252704 -0.234586
C 2.506261 -0.161027 0.039832
O 2.978598 1.092507 -0.379378
C 4.347414 1.279681 -0.169472
C 4.743486 2.691113 -0.594131
C 4.009547 3.728503 0.247091
N 6.194298 2.780357 -0.477758
C 6.880822 3.985739 -0.934786
C 6.365638 4.678556 -2.216085
C 6.930110 6.093061 -2.108632
C 6.699906 6.438376 -0.632121
C 6.986137 5.127498 0.121162
H 0.634507 -1.231079 0.086101
H 0.817229 -0.133938 -1.309572
H 0.475855 0.532055 0.310888
H 3.046135 -0.971129 -0.491905
H 2.707861 -0.303696 1.121055
H 4.933102 0.538841 -0.753945
H 4.612497 1.129823 0.897924
H 4.399747 2.806848 -1.643905
H 4.316924 3.659431 1.303299
H 2.927168 3.546249 0.188053
H 4.199751 4.753667 -0.102344
H 6.595667 1.983773 -0.966687
H 7.909688 3.656772 -1.150318
H 5.264723 4.730050 -2.214715
H 6.668300 4.144076 -3.130043
H 6.456655 6.807041 -2.799817
H 8.011361 6.086131 -2.331397
H 5.646274 6.733304 -0.492415
H 7.318455 7.279767 -0.285320
H 6.289813 4.963388 0.953733
H 7.996897 5.136638 0.557825