34
H21 C10 N1 O2
C 0.915345 0.306109 -0.027092
O 2.294470 0.237954 -0.234034
C 2.961239 1.434877 0.057326
C 4.457512 1.264157 -0.234050
C 4.685932 0.884539 -1.696272
N 5.283421 2.394689 0.161653
C 5.058217 3.695406 -0.436489
C 4.222514 4.631513 0.442478
C 4.142712 6.036114 -0.117033
O 4.790353 4.711389 1.737597
C 4.884407 3.455822 2.386265
C 5.475420 3.685962 3.760932
C 5.725099 2.497482 1.537075
H 0.482295 -0.673314 -0.276356
H 0.437460 1.073449 -0.667507
H 0.664968 0.541380 1.026207
H 2.813565 1.708052 1.120915
H 2.548102 2.266363 -0.552610
H 4.794463 0.413754 0.382248
H 4.330198 1.670929 -2.381371
H 4.137822 -0.036056 -1.939651
H 5.757538 0.721837 -1.885311
H 4.576770 3.584479 -1.418762
H 6.034701 4.191132 -0.608341
H 3.198733 4.213254 0.529198
H 5.150520 6.469069 -0.218010
H 3.554579 6.683306 0.550292
H 3.664154 6.031764 -1.107842
H 3.864268 3.033057 2.492238
H 6.493047 4.099657 3.679103
H 5.526915 2.741838 4.323717
H 4.858983 4.397063 4.330538
H 5.732324 1.498436 1.998580
H 6.766945 2.877228 1.555608