24
H12 C7 N1 O1 F3
O 2.544518 2.883452 -2.414713
C 2.355016 2.191571 -1.208883
C 2.956876 0.792738 -1.311503
N 2.567756 0.068085 -0.107369
C 2.872282 -1.340147 -0.090491
C 2.015926 -2.045164 0.934070
F 2.186095 -1.533652 2.164415
F 0.709069 -1.963214 0.659401
F 2.322088 -3.348360 1.006039
C 4.455884 0.820637 -1.548903
C 5.139308 -0.322566 -2.253491
C 5.013985 1.014182 -2.927941
H 2.207615 3.778413 -2.301012
H 1.282129 2.078763 -0.962909
H 2.829502 2.720753 -0.356874
H 2.477934 0.290136 -2.171532
H 2.978504 0.518586 0.709494
H 3.923489 -1.598147 0.137137
H 2.629865 -1.789173 -1.065185
H 5.015674 1.286235 -0.728091
H 4.509854 -1.137995 -2.622176
H 6.122455 -0.637691 -1.893640
H 4.296444 1.110408 -3.746524
H 5.911250 1.628730 -3.038190