33
H21 C9 N1 O2
C 6.103344 3.155531 1.108414
O 6.188953 1.765959 1.202664
C 7.031937 1.195269 0.239392
C 7.063617 -0.309484 0.421010
C 7.958222 -1.011136 -0.594462
C 7.975383 -2.530482 -0.392254
N 8.806083 -3.304312 -1.306571
C 10.220694 -3.089462 -1.062301
C 8.428895 -3.234566 -2.719660
C 6.924045 -3.415191 -2.914981
C 9.152697 -4.295039 -3.566383
O 10.509472 -4.041864 -3.839684
H 5.424983 3.512225 1.896973
H 5.701781 3.482904 0.128658
H 7.088185 3.644196 1.248474
H 8.058057 1.610722 0.328002
H 6.678188 1.447620 -0.782710
H 6.032305 -0.694907 0.343575
H 7.407202 -0.533279 1.445607
H 8.984594 -0.613343 -0.517802
H 7.608101 -0.774747 -1.614247
H 6.941305 -2.907285 -0.429216
H 8.330102 -2.745439 0.630100
H 10.414042 -3.133867 0.020512
H 10.591774 -2.107268 -1.429567
H 10.828549 -3.859358 -1.551769
H 8.709142 -2.244372 -3.155183
H 6.586643 -4.367814 -2.474978
H 6.683670 -3.429122 -3.987925
H 6.339192 -2.602717 -2.463228
H 8.590930 -4.414246 -4.512041
H 9.107331 -5.259838 -3.035051
H 10.569110 -3.173677 -4.255759