31
H20 C10 O1
C 3.290608 -2.080251 -1.869428
C 3.291809 -1.597139 -0.416890
C 2.899845 -2.751179 0.510134
C 4.622447 -0.896310 -0.000672
C 5.830818 -1.818225 -0.222020
C 4.851751 0.372160 -0.844737
C 4.518430 -0.450454 1.480906
C 3.337142 0.435641 1.826485
O 5.754739 -0.032377 2.062751
C 5.163327 -1.229737 2.552448
C 4.710731 -1.272492 3.985855
H 2.290932 -2.453405 -2.142462
H 4.000588 -2.908502 -2.023755
H 3.545526 -1.279089 -2.578787
H 2.501039 -0.830926 -0.337902
H 3.642292 -3.565011 0.482082
H 1.935063 -3.179981 0.196130
H 2.792236 -2.433785 1.557838
H 6.016149 -1.955615 -1.297087
H 5.696031 -2.816457 0.218700
H 6.735469 -1.370212 0.215038
H 5.122458 0.119536 -1.880265
H 5.681190 0.962086 -0.423719
H 3.960564 1.016602 -0.886047
H 3.505201 0.943000 2.784379
H 2.408071 -0.148472 1.906043
H 3.182489 1.214191 1.066636
H 5.704616 -2.134434 2.249907
H 4.186732 -0.359640 4.296402
H 5.578382 -1.411688 4.649593
H 4.037252 -2.130797 4.137015