32
H19 C9 N1 O1 F2
C 1.088372 0.271677 -0.132119
C 2.548129 0.341211 0.295251
C 3.041895 -0.793163 1.200287
C 2.861275 -2.190972 0.582747
C 1.556605 -2.887276 0.956742
N 4.454461 -0.526769 1.491660
C 5.047455 -1.264911 2.596916
C 6.482874 -1.700331 2.219441
C 6.488544 -2.914713 1.295855
O 7.141801 -0.614228 1.609432
C 7.268021 -1.976964 3.495327
F 6.644118 -2.942891 4.224132
F 8.511958 -2.442187 3.216058
H 0.811549 1.175793 -0.695759
H 0.414047 0.202755 0.736689
H 0.889644 -0.592061 -0.784664
H 2.718489 1.295175 0.825067
H 3.197555 0.364236 -0.597515
H 2.447135 -0.760466 2.139412
H 3.690650 -2.834005 0.912143
H 2.960962 -2.116114 -0.514446
H 1.498008 -3.044773 2.046172
H 1.486907 -3.874982 0.475054
H 0.668278 -2.311275 0.660188
H 4.553748 0.468953 1.675191
H 4.447119 -2.153849 2.838631
H 5.083990 -0.647908 3.513233
H 5.903774 -2.682867 0.393785
H 6.046465 -3.797374 1.780946
H 7.516817 -3.151615 0.989227
H 6.506829 -0.294831 0.948744
H 7.370346 -1.074862 4.119202