32
H21 C9 N1 O1
C 0.895044 -0.094742 0.227880
C 2.396334 -0.175436 -0.013245
C 2.876263 0.304727 -1.386858
C 2.476112 1.763057 -1.690234
C 1.203042 1.913778 -2.515474
N 4.330612 0.155500 -1.434187
C 4.881112 0.073743 -2.772787
C 6.397753 0.236124 -2.786481
C 7.117482 -0.830473 -1.969997
O 6.776577 0.208830 -4.146796
C 8.038362 0.739027 -4.426245
H 0.637505 -0.530461 1.205464
H 0.332295 -0.648178 -0.541257
H 0.532709 0.944794 0.228471
H 2.723848 -1.222341 0.114443
H 2.930767 0.411353 0.754887
H 2.397015 -0.345080 -2.154172
H 3.303892 2.247139 -2.232089
H 2.383747 2.316092 -0.738993
H 1.319159 1.438321 -3.503286
H 0.962111 2.975111 -2.683619
H 0.332735 1.449386 -2.028059
H 4.583212 -0.688761 -0.924247
H 4.461598 0.885410 -3.387538
H 4.622749 -0.875471 -3.291101
H 6.634770 1.231725 -2.357759
H 6.870440 -1.835942 -2.347784
H 6.826045 -0.769704 -0.910566
H 8.209264 -0.701916 -2.012414
H 8.163098 0.750012 -5.518868
H 8.864173 0.141401 -3.996620
H 8.141584 1.777474 -4.054458