33
H21 C10 N1 O1
C 0.650111 -0.855768 0.054115
C 2.141349 -0.550787 -0.046634
C 2.738197 0.147423 1.179390
C 2.525639 -0.710634 2.446388
O 1.238371 -0.605423 3.003374
N 4.172472 0.419105 1.049824
C 4.685500 1.401636 1.996945
C 4.566240 2.847572 1.508725
C 5.277177 3.009149 0.166442
C 4.756509 1.997018 -0.865327
C 3.383329 2.393179 -1.408381
C 4.809156 0.580579 -0.250981
H 0.290656 -1.296088 -0.888987
H 0.067905 0.062241 0.236199
H 0.418526 -1.554592 0.869042
H 2.298448 0.071506 -0.937038
H 2.699557 -1.488025 -0.219355
H 2.168207 1.093980 1.331917
H 3.296645 -0.461333 3.196200
H 2.676886 -1.771854 2.188034
H 1.087660 0.322278 3.219665
H 5.754019 1.181522 2.182943
H 4.174318 1.288833 2.963400
H 4.998478 3.527648 2.260680
H 3.500680 3.119004 1.414857
H 6.358181 2.839866 0.319184
H 5.170135 4.037675 -0.216527
H 5.455870 1.990353 -1.719761
H 2.609741 2.402102 -0.624705
H 3.050505 1.702472 -2.198958
H 3.419633 3.403521 -1.846962
H 5.878056 0.329913 -0.113327
H 4.417375 -0.158723 -0.961710