22
H15 C6 N1
C 1.037034 -0.082039 0.151185
C 2.549889 -0.058323 0.008270
N 3.162947 0.682359 1.097914
C 4.622378 0.662325 1.135081
C 5.202022 1.516969 0.010878
C 5.076970 1.140087 2.518325
C 6.581778 1.099594 2.752077
H 0.569051 -0.612339 -0.691801
H 0.634270 0.942389 0.183752
H 0.734719 -0.594312 1.079604
H 2.812294 0.420907 -0.949209
H 2.932587 -1.101253 -0.057065
H 2.816414 0.294553 1.974931
H 5.004557 -0.376074 0.998837
H 4.881078 2.565771 0.123927
H 4.871942 1.164986 -0.977894
H 6.301525 1.485502 0.012387
H 4.580282 0.507743 3.275447
H 4.695133 2.164519 2.673887
H 6.990397 0.094795 2.555323
H 6.821309 1.356709 3.795259
H 7.120514 1.811721 2.108295