19
H11 C5 N1 O2
C 1.018864 0.035715 -0.175255
C 2.543124 0.005080 -0.079065
C 3.069467 1.402917 0.260393
C 2.985719 -1.016797 0.993108
O 2.494572 -0.743945 2.276842
N 3.055647 -0.455213 -1.373636
C 4.323529 -0.362318 -1.824740
O 4.724546 -0.853120 -2.865300
H 0.588904 0.280327 0.805490
H 0.625676 -0.946739 -0.482859
H 0.686699 0.788751 -0.906065
H 2.570614 1.781614 1.165075
H 2.856964 2.105500 -0.559402
H 4.153348 1.407020 0.450859
H 4.091749 -1.077567 0.981796
H 2.602531 -2.008984 0.703832
H 2.958849 0.027067 2.622830
H 2.435142 -1.035432 -1.933855
H 4.990584 0.226123 -1.157137