30
H19 C9 N1 O1
C 1.018487 -0.078745 0.007380
C 2.163672 0.603573 0.039122
C 2.961001 1.003494 -1.169728
N 4.330166 0.518634 -1.108169
C 4.438101 -0.933433 -1.158690
C 4.992816 -1.523252 0.134957
O 5.134949 -2.920503 0.073637
C 5.238505 1.216344 -2.003228
C 6.706705 1.053754 -1.626258
C 7.644113 1.832167 -2.545759
C 9.113575 1.678903 -2.172087
H 0.472213 -0.324834 0.922961
H 0.580501 -0.413507 -0.939920
H 2.585840 0.916868 1.002487
H 2.998036 2.105459 -1.204537
H 2.432189 0.672393 -2.091010
H 5.083047 -1.253916 -1.996523
H 3.446624 -1.384473 -1.349732
H 4.349128 -1.209938 0.980018
H 5.994269 -1.106577 0.325876
H 4.254616 -3.301978 -0.025212
H 4.987785 2.289204 -1.968159
H 5.095721 0.897953 -3.061428
H 6.987035 -0.013731 -1.648754
H 6.839586 1.388624 -0.582546
H 7.368126 2.901088 -2.526360
H 7.492124 1.497805 -3.587013
H 9.303351 2.036629 -1.146931
H 9.764541 2.251217 -2.851111
H 9.428578 0.623587 -2.217802