35
H22 C10 N1 O1 F1
C 6.702180 0.368542 -0.849827
C 6.128813 0.083505 0.530545
N 5.541500 -1.248431 0.636516
C 5.760991 -1.899954 1.921367
C 7.158777 -2.499246 2.040511
C 7.406378 -3.160677 3.392111
C 8.793307 -3.786079 3.505775
C 9.018551 -4.439990 4.849730
F 10.291640 -4.993935 4.907511
C 4.177557 -1.341258 0.106019
C 3.064810 -0.952122 1.075243
C 3.988003 -2.746793 -0.478853
O 5.101242 -3.098446 -1.249414
H 7.116748 1.387756 -0.896135
H 5.935284 0.285847 -1.635829
H 7.507963 -0.343850 -1.087091
H 5.391395 0.865845 0.804176
H 6.938418 0.164198 1.271400
H 5.029762 -2.715431 2.032567
H 5.575294 -1.206213 2.767945
H 7.919219 -1.717112 1.873112
H 7.288304 -3.238336 1.231173
H 6.639089 -3.936127 3.565519
H 7.273808 -2.413669 4.194754
H 9.567710 -3.015695 3.351983
H 8.930477 -4.543279 2.715476
H 8.290728 -5.249015 5.026864
H 8.932168 -3.707762 5.669546
H 4.143434 -0.645429 -0.747742
H 2.991059 -1.654326 1.919956
H 2.092860 -0.948946 0.557794
H 3.229793 0.057208 1.482869
H 3.083558 -2.763985 -1.110127
H 3.815005 -3.474077 0.342905
H 5.822865 -2.609169 -0.811401