24
H15 C7 N1 O1
C 1.035279 0.056578 0.018932
C 2.552179 -0.013484 -0.081940
N 3.035115 -0.660805 -1.291544
C 2.735710 -2.083871 -1.335565
C 3.143288 -2.700258 -2.670276
C 4.622839 -2.460174 -2.974200
O 5.465658 -3.244624 -2.150336
C 4.925890 -0.966604 -2.843319
C 4.453106 -0.414497 -1.502694
H 0.744113 0.677776 0.879515
H 0.573701 -0.932286 0.159779
H 0.610113 0.507258 -0.891652
H 2.964474 -0.508449 0.827835
H 2.952016 1.013298 -0.078322
H 1.658451 -2.238266 -1.181653
H 3.246775 -2.620982 -0.499123
H 2.535868 -2.249432 -3.471880
H 2.938193 -3.781879 -2.661827
H 4.841508 -2.787481 -4.002545
H 5.308241 -2.997043 -1.231461
H 4.411755 -0.425486 -3.654311
H 6.007494 -0.797030 -2.959152
H 4.634842 0.670760 -1.464917
H 5.063021 -0.857261 -0.677806