26
H16 C8 N1 F1
C 0.903306 0.010795 0.168551
C 2.396971 -0.060171 -0.126352
C 2.653299 -0.280516 -1.614752
N 3.026795 1.175723 0.337653
C 4.464450 1.155666 0.400643
C 5.143099 2.358779 1.085040
C 6.166178 1.391162 1.700324
C 6.690434 1.617660 3.093695
F 7.269375 1.296940 0.835004
C 5.211238 0.225174 1.403279
H 0.392915 -0.908146 -0.156589
H 0.447399 0.866041 -0.356591
H 0.718265 0.135723 1.247879
H 2.807448 -0.938808 0.418610
H 2.279721 0.577260 -2.197796
H 2.139524 -1.189389 -1.963641
H 3.724233 -0.403055 -1.836686
H 2.667736 1.392131 1.267327
H 4.876270 1.015570 -0.610011
H 4.496273 2.792140 1.863749
H 5.549096 3.164396 0.456232
H 7.278571 2.547470 3.135891
H 7.333824 0.779176 3.402024
H 5.858080 1.698825 3.806882
H 4.581883 -0.003427 2.277376
H 5.680117 -0.697929 1.031927