36
H23 C11 N1 O1
C 0.292536 -1.374572 0.186425
O 1.135114 -0.254312 0.170126
C 2.463447 -0.441939 0.561786
C 2.731691 -1.184904 1.889238
N 3.098658 -2.385648 1.131987
C 4.193991 -3.188844 1.628100
C 4.240554 -4.622721 1.088421
C 4.300531 -4.663749 -0.436837
C 5.392652 -5.376003 1.769769
C 5.527082 -6.873814 1.422377
C 6.556609 -7.124888 0.317933
C 5.878400 -7.696383 2.663468
C 3.252147 -1.594242 -0.095790
H -0.697073 -1.037369 -0.153420
H 0.178470 -1.807645 1.196261
H 0.633284 -2.176087 -0.493304
H 2.932702 0.547211 0.482165
H 1.889552 -1.300016 2.593090
H 3.583917 -0.730413 2.431875
H 4.090993 -3.239360 2.724948
H 5.171806 -2.690595 1.428053
H 3.296401 -5.108597 1.396899
H 5.204856 -4.158244 -0.816933
H 3.422951 -4.169811 -0.878338
H 4.306378 -5.697818 -0.812400
H 5.250841 -5.272791 2.859161
H 6.346086 -4.862119 1.545120
H 4.544492 -7.227174 1.059534
H 7.567886 -6.851974 0.664892
H 6.348604 -6.535425 -0.586927
H 6.579959 -8.187733 0.027618
H 6.834823 -7.359252 3.098724
H 5.981541 -8.766555 2.421426
H 5.104800 -7.600340 3.442004
H 2.828062 -2.029367 -1.015491
H 4.303449 -1.306967 -0.297633