21
H13 C6 N1 O1
C 1.084014 -0.018952 0.341285
C 2.562325 0.172935 0.032022
O 3.279692 -1.036903 0.185169
C 2.789533 0.766648 -1.355715
C 2.475310 2.271606 -1.486028
N 3.899652 2.562407 -1.308123
C 4.493412 3.628532 -2.067906
C 4.247614 1.176891 -1.634208
H 0.954080 -0.434701 1.351659
H 0.627571 -0.717632 -0.380491
H 0.533599 0.932374 0.285796
H 2.999658 0.863880 0.773003
H 2.902476 -1.676296 -0.432318
H 2.324791 0.116595 -2.114050
H 1.802173 2.724446 -0.736801
H 2.101376 2.531627 -2.497072
H 4.070641 4.597610 -1.758058
H 4.333370 3.521706 -3.164640
H 5.579600 3.663770 -1.887133
H 5.026508 0.716776 -1.003015
H 4.525076 1.039211 -2.699106