33
H20 C10 N1 O1 F1
C 0.832411 0.305054 -0.114280
C 2.343360 0.052085 -0.158613
C 3.031471 0.935961 -1.198824
O 2.697179 0.562515 -2.513004
C 3.092894 -0.763071 -2.769667
C 2.454852 -1.736170 -1.792377
N 2.732424 -1.338247 -0.422510
C 2.260836 -2.321717 0.536363
C 2.668061 -2.031389 1.975487
C 2.353429 -3.193442 2.912934
C 2.718979 -2.902899 4.365394
C 2.408924 -4.066794 5.278632
F 2.755459 -3.755481 6.587825
H 0.633866 1.352731 0.159397
H 0.335597 -0.331612 0.633378
H 0.360982 0.120747 -1.091229
H 2.770368 0.340021 0.815238
H 4.128710 0.871808 -1.053955
H 2.727547 1.985054 -1.069761
H 4.196629 -0.847867 -2.699684
H 2.794685 -1.003757 -3.800459
H 2.874490 -2.740329 -1.966184
H 1.364305 -1.805309 -2.000586
H 2.690850 -3.293718 0.239298
H 1.156174 -2.456155 0.491156
H 2.153598 -1.128475 2.345024
H 3.749419 -1.811115 2.000507
H 2.891643 -4.095438 2.572189
H 1.277547 -3.434549 2.847262
H 2.168381 -2.016221 4.722356
H 3.793904 -2.667749 4.443013
H 2.974538 -4.966601 4.985335
H 1.333766 -4.310591 5.263493