30
H19 C9 N1 O1
C 5.221084 2.009521 -2.956528
O 4.706404 2.114649 -1.662742
C 4.911420 0.963180 -0.886723
C 4.352167 1.177568 0.514986
C 2.825771 1.229876 0.511962
C 4.931037 2.432610 1.178469
N 6.378453 2.495938 1.101944
C 6.954656 3.593382 1.857612
C 8.449557 3.655567 1.665805
C 9.010701 4.327413 0.440444
C 9.175710 4.963284 1.794662
H 5.024859 2.955212 -3.481870
H 4.745422 1.187210 -3.526168
H 6.314536 1.831036 -2.952826
H 5.993969 0.728961 -0.829942
H 4.422234 0.084962 -1.356342
H 4.678392 0.303495 1.105087
H 2.464886 2.044289 -0.135517
H 2.430061 1.401203 1.525595
H 2.396552 0.287103 0.138306
H 4.640416 2.427883 2.243212
H 4.448657 3.329287 0.732697
H 6.648352 2.615769 0.125834
H 6.722264 3.444030 2.927095
H 6.515810 4.578311 1.581007
H 8.982891 2.763509 2.011421
H 8.299137 4.787087 -0.253088
H 9.890347 3.887574 -0.036931
H 8.581439 5.855423 2.014863
H 10.169346 4.958320 2.250427