29
H17 C8 N1 O1 F2
C 0.813857 -0.064961 0.009232
O 2.209147 -0.048769 -0.048359
C 2.797352 -1.240037 0.385734
C 4.315693 -1.107842 0.343117
C 4.795023 -0.016877 1.293245
N 4.880998 -2.407471 0.682260
C 6.322537 -2.506942 0.544294
C 6.773426 -3.939436 0.797625
C 8.274815 -4.118589 0.880524
C 9.082277 -3.729329 -0.330111
F 8.747294 -3.421477 1.968474
F 8.525004 -5.438188 1.170129
H 0.446009 0.907185 -0.348778
H 0.443587 -0.221721 1.041342
H 0.381655 -0.859680 -0.630199
H 2.480896 -2.086146 -0.260224
H 2.480329 -1.488171 1.420295
H 4.585750 -0.804031 -0.692805
H 4.621519 -0.320689 2.338807
H 4.240971 0.912458 1.100606
H 5.866602 0.198092 1.169339
H 4.454332 -3.110630 0.079185
H 6.806062 -1.850053 1.284188
H 6.673391 -2.170010 -0.454446
H 6.400282 -4.606656 0.004351
H 6.349812 -4.289897 1.751792
H 8.992442 -2.651636 -0.520521
H 8.726182 -4.278938 -1.211903
H 10.139116 -3.973469 -0.152594