30
H18 C9 N1 O1 F1
C 2.495620 0.207013 -0.517021
C 1.109839 0.211383 0.091510
C 0.395934 -1.135869 -0.064367
N -0.986855 -1.114179 0.397841
C -1.149529 -1.230663 1.840719
C -0.989254 -2.666714 2.332126
C -1.188352 -2.791872 3.838909
C -1.039791 -4.218045 4.316550
F -1.224809 -4.285516 5.692051
C -1.691979 0.003094 -0.215962
C -0.956775 1.326156 -0.039878
O 0.358357 1.236370 -0.538812
H 3.132681 -0.542462 -0.024052
H 2.969026 1.193592 -0.404319
H 2.444031 -0.031101 -1.591298
H 1.189303 0.447007 1.173507
H 0.957806 -1.916371 0.470402
H 0.405049 -1.404538 -1.136681
H -2.165951 -0.887135 2.092185
H -0.458054 -0.575381 2.411280
H 0.012922 -3.044035 2.066065
H -1.715283 -3.302356 1.797622
H -2.190512 -2.426676 4.120552
H -0.454770 -2.162996 4.371179
H -0.034584 -4.611423 4.092077
H -1.786044 -4.877205 3.843279
H -2.710176 0.073315 0.196652
H -1.785507 -0.197353 -1.298563
H -0.942039 1.615768 1.031087
H -1.461985 2.129905 -0.596750