38
H25 C11 N1 O1
C 1.003441 -0.158727 0.038575
C 2.455177 0.140200 0.337616
O 2.965366 0.996912 -0.650521
C 4.306753 1.339734 -0.462180
C 4.747388 2.311537 -1.551161
C 3.954396 3.611093 -1.481301
N 6.175280 2.540623 -1.389288
C 6.799292 3.329689 -2.440986
C 8.333509 3.236375 -2.407780
C 8.876351 2.075704 -3.257839
C 8.285571 0.698307 -2.972513
C 8.950315 4.578870 -2.830452
C 10.473199 4.643219 -2.791279
H 0.587905 -0.833658 0.801508
H 0.900399 -0.642203 -0.944934
H 0.407881 0.767023 0.033514
H 3.042717 -0.800124 0.369228
H 2.554263 0.608435 1.338078
H 4.947877 0.433390 -0.495814
H 4.463928 1.807902 0.531990
H 4.522824 1.826583 -2.528176
H 4.207041 4.160761 -0.559388
H 2.877519 3.391721 -1.475669
H 4.161378 4.265756 -2.340780
H 6.638469 1.636581 -1.337298
H 6.500142 4.382962 -2.312000
H 6.440685 3.034457 -3.453710
H 8.617320 3.056528 -1.353268
H 9.968057 2.017777 -3.120791
H 8.716142 2.323285 -4.323372
H 8.423075 0.409154 -1.917026
H 8.779882 -0.069384 -3.587889
H 7.209096 0.650071 -3.202102
H 8.545185 5.363097 -2.168844
H 8.596582 4.827943 -3.847915
H 10.858787 4.330994 -1.806454
H 10.824882 5.670292 -2.975384
H 10.939566 3.998842 -3.552021