30
H19 C9 N1 O1
C 3.046190 -2.756579 0.884175
C 3.979089 -1.830043 0.656717
C 4.762953 -1.677406 -0.611933
C 4.598568 -0.298958 -1.274956
C 3.165491 -0.066561 -1.736118
N 5.490356 -0.178725 -2.420100
C 6.894687 0.000231 -2.112940
C 7.655544 0.427159 -3.364793
O 7.080745 1.601794 -3.914851
C 9.151261 0.591486 -3.108982
C 9.937906 0.971086 -4.356500
H 2.516794 -2.812957 1.840236
H 2.779249 -3.497834 0.122239
H 4.209071 -1.105586 1.449791
H 4.481471 -2.457553 -1.339390
H 5.830788 -1.826238 -0.376179
H 4.841802 0.468669 -0.504670
H 2.881893 -0.811421 -2.497616
H 3.055424 0.935799 -2.180155
H 2.457849 -0.144003 -0.897853
H 5.204305 0.626271 -2.975863
H 7.334073 -0.938283 -1.736358
H 7.061651 0.766266 -1.319820
H 7.503289 -0.349052 -4.134330
H 7.248550 2.324000 -3.294691
H 9.538460 -0.351094 -2.688229
H 9.291487 1.359877 -2.326621
H 9.856188 0.189909 -5.129546
H 11.005794 1.109061 -4.128923
H 9.557442 1.908224 -4.789421