24
H13 C7 N1 O1 F2
O 1.908826 0.048904 -0.480309
C 1.097680 -0.044464 0.675119
C 0.397486 1.281174 0.984830
C -0.635186 1.625507 -0.087917
C -1.605723 0.458129 -0.285962
N -0.930171 -0.799696 -0.587212
C -0.526561 -0.962055 -1.967255
C -1.581206 -1.700465 -2.759405
F -2.735444 -0.975822 -2.837094
F -1.154327 -1.879855 -4.040689
C 0.059908 -1.138818 0.422147
H 2.479482 0.820026 -0.384071
H 1.708392 -0.345130 1.549367
H 1.148264 2.083349 1.088495
H -0.099717 1.188324 1.965978
H -0.120351 1.841643 -1.038823
H -1.193351 2.534266 0.187685
H -2.324292 0.677186 -1.087476
H -2.194034 0.317826 0.639092
H 0.392828 -1.559607 -2.028882
H -0.315615 -0.007585 -2.485807
H -1.830084 -2.683427 -2.329488
H 0.568435 -2.072079 0.136555
H -0.462748 -1.333482 1.375221