20
H13 C5 N1 O1
C 2.618363 -0.257337 4.130880
C 2.341988 -0.439396 2.644834
C 3.147297 0.510591 1.749428
C 2.687516 0.428473 0.287055
O 2.978312 -0.820740 -0.300358
N 4.574204 0.251188 1.904904
C 5.452256 1.316533 1.466742
H 2.057590 -0.985419 4.737148
H 2.329603 0.752234 4.466493
H 3.690223 -0.385709 4.341585
H 1.267667 -0.290291 2.442107
H 2.570683 -1.481390 2.355541
H 2.954664 1.544493 2.090457
H 1.609233 0.669586 0.220036
H 3.220127 1.183107 -0.312570
H 2.411321 -1.483838 0.109943
H 4.789849 -0.601740 1.388691
H 5.292358 2.214320 2.086404
H 5.329726 1.622776 0.407227
H 6.501161 1.009440 1.599083