25
H15 C7 N1 O2
C 1.371889 -0.110562 -1.129954
C 2.602391 -0.269413 -0.245245
C 3.210069 -1.667436 -0.311611
C 4.434835 -1.813987 0.589126
N 5.045829 -3.135706 0.551910
C 4.476293 -4.143633 1.251774
O 3.467720 -4.042974 1.927744
C 6.257068 -3.352258 -0.214124
C 6.041936 -3.339220 -1.727026
O 7.220208 -3.664773 -2.416953
H 0.953454 0.905406 -1.059782
H 0.579446 -0.819561 -0.839937
H 1.614534 -0.299863 -2.188365
H 2.336824 -0.038769 0.801272
H 3.365488 0.473740 -0.536564
H 3.488005 -1.902492 -1.352876
H 2.458670 -2.413542 -0.005434
H 4.145025 -1.599751 1.630366
H 5.206183 -1.081395 0.305284
H 5.038056 -5.101081 1.158530
H 6.680851 -4.328320 0.066085
H 7.001920 -2.583932 0.058353
H 5.640535 -2.359045 -2.046945
H 5.288066 -4.099769 -1.986123
H 7.847525 -2.942592 -2.292867