35
H23 C10 N1 O1
C 9.077772 3.061832 2.787399
C 8.557202 1.680913 2.407075
C 7.324784 1.729565 1.509680
C 6.753049 0.359554 1.131712
C 5.642666 0.505289 0.086987
N 6.326455 -0.347132 2.335929
C 6.086404 -1.786205 2.230078
C 4.768713 -2.171977 2.911505
C 3.519872 -1.622348 2.232246
C 7.247768 -2.589705 2.828394
C 8.599843 -2.349898 2.173185
O 9.607507 -3.191302 2.688539
H 9.967097 2.994662 3.433475
H 8.313327 3.639589 3.332688
H 9.357868 3.645631 1.895031
H 8.310475 1.108257 3.315194
H 9.353975 1.114093 1.893812
H 7.567084 2.278740 0.583227
H 6.527985 2.313535 2.008833
H 7.569603 -0.231376 0.681777
H 4.827196 1.137260 0.477598
H 5.213802 -0.471467 -0.184678
H 6.020270 0.973330 -0.835992
H 5.512937 0.126754 2.722471
H 5.998430 -2.076378 1.162814
H 4.706308 -3.271192 2.950040
H 4.808546 -1.829535 3.961616
H 3.439514 -1.987009 1.195579
H 3.517077 -0.521616 2.197979
H 2.610670 -1.934977 2.768391
H 7.023251 -3.667410 2.753536
H 7.323727 -2.346584 3.904541
H 8.882968 -1.285623 2.270144
H 8.534856 -2.567571 1.093894
H 9.700508 -2.989669 3.626970