33
H20 C10 N1 O1 F1
C 2.052494 -0.177216 1.481517
C 0.934488 -0.069567 0.456237
C -0.109693 -1.197066 0.552717
C -1.391977 -0.646587 -0.113148
C -1.078046 0.827236 -0.442815
C 0.069554 1.209910 0.496765
N -0.438218 1.484585 1.839608
C 0.320538 2.458956 2.598192
C -0.158674 2.496092 4.036329
O 0.584186 3.455030 4.738787
C 0.229376 3.570017 6.083720
C 1.118024 4.627598 6.702652
F 0.790371 4.766025 8.039160
H 2.589819 -1.132933 1.370873
H 1.651702 -0.139615 2.507042
H 2.790868 0.632928 1.370236
H 1.385476 -0.100408 -0.552092
H -0.297777 -1.421866 1.614726
H 0.250996 -2.126565 0.086099
H -2.248978 -0.720107 0.573344
H -1.665489 -1.208058 -1.019026
H -1.947416 1.495683 -0.337299
H -0.724893 0.918938 -1.481378
H 0.629995 2.082026 0.104039
H -1.402610 1.803103 1.774142
H 0.262109 3.483729 2.173479
H 1.384722 2.180624 2.595225
H -0.042146 1.492799 4.492305
H -1.240490 2.741945 4.070082
H 0.365506 2.611121 6.622705
H -0.832828 3.865104 6.199718
H 0.974366 5.597263 6.200572
H 2.177585 4.337184 6.625899