21
H13 C6 N1 O1
C 0.946070 -0.142570 -0.339444
C 2.391806 0.013821 0.114284
C 3.097652 -1.243349 0.636921
N 4.467353 -0.887161 0.929137
C 5.282896 -1.809981 1.690602
C 2.245815 -2.058346 1.649688
O 1.921458 -3.024421 0.648325
C 2.892932 -2.488868 -0.250468
H 0.558701 0.824303 -0.694939
H 0.287238 -0.477310 0.475942
H 0.845615 -0.858475 -1.169121
H 2.438658 0.774414 0.914300
H 3.001801 0.401431 -0.719197
H 4.497213 0.033927 1.360162
H 5.317903 -2.796256 1.202556
H 4.952257 -1.971762 2.735823
H 6.316340 -1.432697 1.726737
H 1.353258 -1.565106 2.070862
H 2.822339 -2.502822 2.479637
H 2.493035 -2.322132 -1.265243
H 3.787541 -3.131843 -0.331846