30
H19 C9 N1 O1
C 1.816361 -3.735212 0.923462
O 2.586450 -2.863477 0.152973
C 3.553924 -2.170157 0.893181
C 4.364597 -1.277376 -0.038795
C 3.469184 -0.235595 -0.716339
N 5.113661 -2.099285 -0.979030
C 6.399429 -1.640585 -1.442204
C 7.605991 -1.692561 -0.481691
C 8.187264 -0.461594 -1.213221
C 8.921012 0.593232 -0.407700
C 6.761298 -0.153761 -1.723007
H 1.088272 -4.226777 0.262090
H 1.260397 -3.203772 1.721296
H 2.433680 -4.518079 1.407002
H 4.238307 -2.881608 1.397484
H 3.071080 -1.557195 1.683094
H 5.092614 -0.755671 0.604900
H 2.690306 -0.737130 -1.311224
H 4.049661 0.412717 -1.388286
H 2.966395 0.403930 0.026712
H 4.515852 -2.378628 -1.751224
H 6.644259 -2.229935 -2.339895
H 8.198642 -2.620189 -0.445474
H 7.303276 -1.424054 0.544581
H 8.817343 -0.796706 -2.054163
H 8.305843 0.939983 0.439188
H 9.166352 1.471924 -1.026274
H 9.865279 0.199509 0.002569
H 6.633214 0.232603 -2.746569
H 6.252486 0.524848 -1.020054