33
H21 C10 N1 O1
C 1.037095 0.210660 0.245385
C 2.548330 0.241606 0.469695
C 3.262196 -0.803112 -0.383519
C 3.078942 1.653906 0.192836
N 4.518971 1.810332 0.318099
C 4.989845 3.009190 -0.340214
C 4.974716 1.711727 1.690568
C 6.488235 1.589491 1.863709
C 7.090126 0.512112 0.973122
C 7.318849 2.892379 1.913345
O 7.819708 2.588575 3.216063
C 6.930008 1.478503 3.336715
H 0.619723 -0.778631 0.489927
H 0.789581 0.426696 -0.807856
H 0.519925 0.956239 0.870491
H 2.726520 -0.002619 1.531526
H 3.112933 -0.598035 -1.457677
H 2.876904 -1.814625 -0.178303
H 4.345255 -0.802570 -0.193228
H 2.538129 2.377856 0.845972
H 2.807889 1.915607 -0.844395
H 4.632177 3.030979 -1.380591
H 6.089463 3.033661 -0.375434
H 4.645181 3.943875 0.156709
H 4.528454 0.810684 2.140330
H 4.614981 2.575431 2.298356
H 6.954466 0.753742 -0.091422
H 6.610137 -0.461515 1.163794
H 8.168874 0.403586 1.167166
H 6.718299 3.820173 1.910096
H 8.123865 2.986940 1.163526
H 6.124226 1.669100 4.070203
H 7.449087 0.545515 3.617413