21
H13 C6 N1 O1
C 0.992780 -0.111754 -0.176015
O 2.349754 0.044380 0.110968
C 2.696162 1.352527 0.473589
C 4.199009 1.379364 0.747014
N 4.758058 2.638839 1.167770
C 4.630734 3.865420 0.377713
C 4.624512 4.666869 1.693515
C 4.325393 3.324193 2.387342
H 0.818025 -1.163453 -0.445452
H 0.671351 0.524328 -1.024504
H 0.352608 0.137004 0.693567
H 2.129028 1.669437 1.372488
H 2.433602 2.061534 -0.337660
H 4.718717 1.049286 -0.168984
H 4.417121 0.624063 1.521369
H 3.672252 3.958940 -0.169758
H 5.453302 4.050012 -0.334864
H 3.870051 5.458221 1.791966
H 5.614353 5.067731 1.952001
H 3.248623 3.206404 2.619712
H 4.902506 3.072625 3.294055