29
H17 C9 N1 O2
C 6.371935 -1.992574 -2.088501
O 5.916453 -0.977234 -1.201442
C 5.431063 0.132170 -1.756662
O 5.388516 0.310038 -2.948401
C 4.879041 1.081990 -0.698965
C 3.362270 0.874769 -0.680207
N 5.265054 2.451176 -0.996414
C 4.589343 3.429891 -0.164525
C 6.710358 2.650974 -0.983647
C 7.220913 3.567341 -2.085304
C 6.858990 3.300379 -3.518435
C 6.331253 4.527462 -2.828076
H 6.726679 -2.815411 -1.457490
H 7.194496 -1.622304 -2.717208
H 5.554669 -2.343206 -2.735516
H 5.284423 0.748378 0.279694
H 2.915159 1.255313 -1.611116
H 2.896226 1.381799 0.175158
H 3.132767 -0.197499 -0.592218
H 3.515129 3.482544 -0.391769
H 5.010092 4.426035 -0.356601
H 4.706444 3.222847 0.921892
H 7.216455 1.677913 -1.095291
H 7.041210 3.038241 0.001655
H 8.244544 3.914197 -1.908862
H 6.150111 2.484656 -3.687598
H 7.632956 3.418576 -4.282161
H 5.266050 4.533775 -2.585039
H 6.745460 5.501755 -3.102309