35
H23 C10 N1 O1
C 0.894067 -0.029036 -0.027422
C 2.417607 -0.034392 -0.041136
C 3.028695 -0.655820 1.210958
C 4.556477 -0.621294 1.234012
O 5.047647 0.702455 1.108664
C 5.126655 -1.310986 2.472130
C 6.647780 -1.323776 2.512438
N 7.141282 -1.928730 3.735173
C 8.588643 -1.970824 3.821714
C 9.093682 -2.504975 5.164506
C 8.628268 -3.937479 5.426847
C 10.616425 -2.403525 5.234771
H 0.484011 0.423494 -0.943736
H 0.505102 0.544080 0.830236
H 0.490390 -1.052052 0.048908
H 2.796781 0.994956 -0.145096
H 2.778905 -0.583531 -0.928442
H 2.696803 -1.703803 1.308900
H 2.653378 -0.129065 2.109035
H 4.930879 -1.145554 0.336730
H 4.737654 1.198031 1.877763
H 4.745567 -2.346228 2.508774
H 4.748252 -0.804629 3.378770
H 7.014347 -0.285314 2.458219
H 7.032850 -1.830850 1.598991
H 6.772247 -2.876553 3.798420
H 8.964835 -0.941583 3.686500
H 9.047050 -2.572466 3.002441
H 8.664397 -1.857059 5.949584
H 8.978295 -4.616778 4.630541
H 7.530766 -4.012127 5.479366
H 9.024764 -4.311794 6.383939
H 11.090413 -3.034953 4.464168
H 10.992680 -2.736828 6.214688
H 10.959840 -1.368604 5.077186