13
H8 C4 O1
O 1.586249 0.040999 0.354636
C 0.503360 -0.037676 -0.539605
C -0.565352 -1.078317 -0.127406
C -1.349003 0.049632 0.579617
C -0.511770 1.073408 -0.218790
H 2.093276 -0.775354 0.271669
H 0.857368 -0.093727 -1.586014
H -0.206184 -1.920043 0.485188
H -1.104331 -1.475869 -1.000732
H -1.134400 0.091045 1.657376
H -2.439475 0.070172 0.437052
H -0.101736 1.940310 0.320571
H -1.030652 1.423800 -1.123173