24
H12 C7 O5
C 1.185254 0.055959 0.283679
C 2.656317 -0.275261 0.290990
O 3.238578 0.319116 1.459912
C 4.533431 0.131040 1.638063
O 5.265387 -0.489611 0.909280
O 4.892473 0.743033 2.763211
C 6.269233 0.703611 3.112622
C 6.996787 1.912111 2.545907
C 6.334171 0.616583 4.630687
O 5.390767 0.498032 5.365177
O 7.599005 0.666904 5.036793
C 7.830167 0.571899 6.439033
H 0.716155 -0.389379 -0.605655
H 1.025139 1.143882 0.250600
H 0.685021 -0.347235 1.176689
H 3.164790 0.121022 -0.601436
H 2.826380 -1.362481 0.321342
H 6.717813 -0.220474 2.714334
H 6.567089 2.844617 2.940526
H 6.908781 1.913097 1.450236
H 8.062037 1.871177 2.807358
H 8.915370 0.638080 6.575366
H 7.461554 -0.387011 6.830987
H 7.334820 1.395620 6.972637