20
H12 C6 O2
C 1.021783 -0.043755 0.114551
C 2.529254 0.070948 0.076881
O 3.084236 -0.796534 1.030591
C 4.482410 -0.766366 1.072984
C 4.969214 -1.744042 2.125467
C 6.493087 -1.770982 2.227428
C 6.980375 -2.677723 3.320445
O 7.868267 -3.485585 3.204337
H 0.568723 0.629928 -0.627870
H 0.635651 0.226655 1.109304
H 0.704330 -1.073158 -0.111892
H 2.840192 1.116121 0.281233
H 2.908213 -0.178479 -0.935522
H 4.845249 0.255840 1.310317
H 4.909248 -1.030821 0.083020
H 4.589267 -2.749188 1.879209
H 4.531015 -1.464548 3.098060
H 6.861764 -0.758956 2.479771
H 6.966187 -2.072437 1.280164
H 6.456618 -2.548426 4.302150