21
H13 C6 N1 O1
C 1.001320 0.342343 -0.284102
C 2.406414 0.032061 0.215018
C 2.967117 -1.265303 -0.352194
N 4.321264 -1.509781 0.115792
C 4.911957 -2.715825 -0.389545
C 6.289055 -3.099797 0.165963
O 5.854015 -4.426535 0.466884
C 4.496571 -4.103352 0.156377
H 0.622858 1.282425 0.145373
H 0.293371 -0.457206 -0.011546
H 0.980696 0.444657 -1.381304
H 2.402527 -0.032370 1.317605
H 3.094864 0.853723 -0.044708
H 2.990001 -1.204136 -1.455038
H 2.273912 -2.099741 -0.106579
H 4.328712 -1.530051 1.135953
H 4.892572 -2.689610 -1.490263
H 6.566089 -2.529506 1.073024
H 7.138897 -3.080468 -0.536523
H 3.860019 -4.046276 1.060264
H 4.046980 -4.817710 -0.553772