19
H12 C5 O2
C 0.922271 -0.042044 -0.054680
C 2.432203 0.036332 -0.057884
O 2.963349 -1.255745 -0.202108
C 4.359542 -1.295363 -0.217430
C 4.832598 -2.733984 -0.403339
C 4.335751 -3.345268 -1.703496
O 6.239034 -2.786788 -0.294340
H 0.488529 0.962253 0.061499
H 0.567436 -0.671147 0.775965
H 0.552398 -0.472344 -0.997958
H 2.796070 0.495968 0.883533
H 2.782676 0.687589 -0.884377
H 4.782918 -0.900029 0.727792
H 4.764886 -0.668427 -1.042101
H 4.444290 -3.324800 0.443015
H 4.716175 -2.773845 -2.567745
H 3.237420 -3.331969 -1.744994
H 4.681688 -4.385642 -1.796122
H 6.608136 -2.345786 -1.069981