33
H21 C10 N1 O1
C 1.261173 1.162198 4.690856
C 2.207219 0.048966 4.301379
O 3.439346 0.242676 4.952217
C 4.398335 -0.721801 4.637316
C 5.151056 -0.494262 3.308871
N 6.270445 0.096801 4.055365
C 7.633282 -0.241004 3.712183
C 8.250945 0.626328 2.610213
C 7.417689 0.620735 1.329153
C 9.694722 0.198205 2.309867
C 10.658000 0.266458 3.490641
C 5.739442 -0.428189 5.317877
H 0.286108 1.023649 4.200635
H 1.665853 2.140022 4.388111
H 1.103306 1.175058 5.780196
H 2.345671 0.033666 3.202309
H 1.781633 -0.936169 4.581442
H 3.992287 -1.738915 4.783530
H 4.657693 0.169957 2.580551
H 5.416990 -1.442604 2.801623
H 7.718608 -1.315259 3.418814
H 8.230266 -0.121966 4.630218
H 8.275972 1.663081 2.994067
H 7.274530 -0.406189 0.951707
H 7.916369 1.200682 0.536223
H 6.424949 1.065906 1.486883
H 10.077874 0.841107 1.499323
H 9.683986 -0.828586 1.900222
H 10.643382 1.264705 3.958653
H 11.690993 0.067204 3.165637
H 10.415719 -0.471230 4.271184
H 5.701567 0.291061 6.153154
H 6.243778 -1.352521 5.659681