39
H25 C12 N1 O1
C 4.620396 -1.791006 2.413187
O 4.236998 -1.088239 1.268718
C 4.892982 -1.519878 0.109994
C 4.427478 -0.684623 -1.077895
C 2.904478 -0.684098 -1.265594
C 2.251983 -2.055635 -1.534335
C 1.744780 -2.720572 -0.252868
C 1.115161 -1.929380 -2.549634
N 5.064616 -1.154010 -2.301660
C 6.503344 -0.970279 -2.419832
C 7.355241 -2.209342 -2.111308
C 8.728375 -1.857802 -2.690233
C 8.433130 -0.971753 -3.927889
C 6.929866 -0.643221 -3.856402
H 4.056673 -1.388558 3.266901
H 5.702466 -1.680598 2.622951
H 4.400713 -2.873375 2.327110
H 4.699554 -2.595282 -0.084808
H 5.987758 -1.411116 0.237259
H 4.723457 0.364086 -0.852597
H 2.442774 -0.215204 -0.382275
H 2.695650 -0.007310 -2.112824
H 3.023982 -2.705184 -1.981308
H 0.918504 -2.134064 0.184610
H 2.528512 -2.796936 0.513506
H 1.362942 -3.734361 -0.455223
H 0.334911 -1.239757 -2.183661
H 0.635760 -2.903299 -2.740028
H 1.479392 -1.539564 -3.513744
H 4.606541 -0.693535 -3.084559
H 6.845387 -0.144024 -1.759079
H 6.908123 -3.066120 -2.644270
H 7.391616 -2.466594 -1.042515
H 9.321407 -2.750502 -2.938058
H 9.308560 -1.287353 -1.947421
H 8.679280 -1.489521 -4.866848
H 9.042138 -0.055532 -3.905978
H 6.358258 -1.301117 -4.533683
H 6.695742 0.395580 -4.135067