34
H23 C10 N1
C 0.891150 0.056919 -0.662605
C 2.328596 -0.035058 -0.162871
C 3.114151 -1.151627 -0.843287
C 4.596643 -1.264260 -0.467850
C 4.816212 -1.425174 1.051923
C 5.139759 -0.131623 1.796326
C 5.315401 -0.335567 3.296025
N 5.181605 -2.381876 -1.214983
C 6.498041 -2.142924 -1.801323
C 7.576664 -1.968248 -0.736020
C 6.837168 -3.299220 -2.735150
H 0.339470 0.863791 -0.155798
H 0.346570 -0.884389 -0.482437
H 0.856386 0.257073 -1.745978
H 2.321593 -0.192991 0.928302
H 2.840560 0.928315 -0.331879
H 3.048594 -1.013784 -1.937771
H 2.631004 -2.122190 -0.623570
H 5.085698 -0.315964 -0.780140
H 5.640615 -2.137161 1.208361
H 3.926122 -1.902617 1.501680
H 4.350828 0.617000 1.617737
H 6.063865 0.299808 1.371866
H 4.392506 -0.725860 3.755738
H 5.569362 0.606501 3.806567
H 6.120566 -1.058318 3.507727
H 4.551641 -2.632673 -1.973859
H 6.486812 -1.208394 -2.407443
H 7.646242 -2.866957 -0.101214
H 7.376292 -1.103091 -0.086079
H 8.556548 -1.803846 -1.210605
H 6.874076 -4.247753 -2.175043
H 7.813662 -3.143149 -3.218095
H 6.080688 -3.402343 -3.530110