33
H21 C9 N1 O2
C 0.822868 -0.114415 0.200690
C 2.340562 0.016432 0.266220
C 2.851884 1.202513 1.102127
C 2.504442 0.998040 2.573793
N 4.295629 1.379360 0.873120
C 4.614185 1.793744 -0.489314
C 5.465721 0.774493 -1.243473
O 5.804800 1.211571 -2.535881
C 5.027027 2.143708 1.866566
C 6.529001 1.914894 1.795004
O 7.118571 2.585029 2.873624
C 8.509595 2.469647 2.903504
H 0.533399 -0.924577 -0.486036
H 0.359367 0.814949 -0.169399
H 0.375030 -0.343583 1.179612
H 2.716974 0.110952 -0.763406
H 2.790020 -0.906878 0.672245
H 2.306844 2.111638 0.757352
H 3.082910 0.163147 3.002516
H 1.437454 0.755333 2.673257
H 2.682116 1.895808 3.181760
H 5.148202 2.761803 -0.492539
H 3.687815 1.969384 -1.065117
H 4.939888 -0.199594 -1.260502
H 6.411872 0.611553 -0.704693
H 4.988537 1.293503 -3.043080
H 4.725778 1.831967 2.873514
H 4.831278 3.237098 1.794008
H 6.953894 2.283289 0.839490
H 6.732005 0.824810 1.842369
H 8.879904 3.019092 3.780936
H 8.981558 2.898618 1.997478
H 8.837168 1.414613 2.987716