30
H18 C9 N1 O1 F1
C 1.062545 0.427829 -0.009841
C 2.572871 0.312461 -0.201734
C 3.124236 -0.656614 -1.282397
C 2.108057 -1.138760 -2.315136
N 1.276569 -2.203253 -1.780566
C 0.182353 -2.565893 -2.655746
C -0.982722 -1.602330 -2.519427
F -1.991409 -1.984134 -3.391830
C 2.118672 -3.323045 -1.405663
C 3.123018 -2.901646 -0.334324
C 2.494080 -2.755639 1.047833
O 3.848362 -1.754330 -0.742829
H 0.841478 1.126585 0.812264
H 0.589135 -0.535266 0.221758
H 0.569680 0.823302 -0.911535
H 3.053921 0.033862 0.748337
H 2.954248 1.319198 -0.438834
H 3.892708 -0.100588 -1.840160
H 2.659189 -1.497235 -3.213959
H 1.488188 -0.290904 -2.638533
H -0.176123 -3.569958 -2.381471
H 0.492295 -2.613366 -3.722393
H -0.696328 -0.568611 -2.768017
H -1.382711 -1.623099 -1.493595
H 2.673347 -3.716957 -2.287213
H 1.495832 -4.141696 -1.014699
H 3.884858 -3.695205 -0.269869
H 1.636608 -2.069814 1.045188
H 3.239567 -2.384030 1.766541
H 2.140155 -3.736865 1.400301