30
H19 C10 N1
C 1.205179 1.206461 0.362331
C 2.399214 1.003747 0.381999
C 3.840148 0.752012 0.427505
C 4.327862 0.275894 1.800711
C 5.834069 0.035098 1.806938
N 6.343341 -0.407206 3.094826
C 6.066787 -1.806423 3.343949
C 7.750251 -0.088552 3.286386
C 8.029912 1.383438 3.613691
C 7.318675 1.812065 4.894636
C 9.536347 1.620313 3.703427
H 0.143639 1.389762 0.339717
H 4.369679 1.676220 0.140494
H 4.091553 0.001275 -0.340557
H 3.785967 -0.643754 2.072301
H 4.082111 1.030207 2.565335
H 6.329526 0.980512 1.538245
H 6.098482 -0.689473 1.002630
H 4.992164 -2.017209 3.241599
H 6.357696 -2.075688 4.370812
H 6.608121 -2.484968 2.646670
H 8.354528 -0.390388 2.400723
H 8.121192 -0.696344 4.129239
H 7.644494 2.003351 2.784986
H 7.705290 1.250320 5.762562
H 6.237653 1.620839 4.828085
H 7.468355 2.884693 5.096134
H 9.983117 1.016759 4.511910
H 9.760781 2.677569 3.914900
H 10.045718 1.350552 2.764374