30
H19 C9 N1 O1
C 1.257917 1.018110 -0.068244
C 2.112146 0.010527 -0.255689
C 2.979241 -0.180467 -1.465229
C 4.472372 -0.207065 -1.126822
C 5.336593 -0.454774 -2.359386
N 6.766059 -0.343006 -2.112967
C 7.268098 -1.423876 -1.289075
C 7.512184 -0.204026 -3.354128
C 8.963117 0.222898 -3.161339
C 9.633834 0.602458 -4.475056
O 11.000632 0.900625 -4.326059
H 0.657270 1.096604 0.843106
H 1.124962 1.803251 -0.821499
H 2.214474 -0.750978 0.529460
H 2.773798 0.614661 -2.201617
H 2.710632 -1.137567 -1.948487
H 4.650794 -0.984528 -0.365742
H 4.770240 0.753636 -0.673673
H 5.069069 0.295103 -3.121790
H 5.075974 -1.447137 -2.797181
H 6.722197 -1.473866 -0.336664
H 8.327720 -1.267979 -1.042444
H 7.176841 -2.417057 -1.785337
H 7.003830 0.561734 -3.963365
H 7.483257 -1.145223 -3.952081
H 9.558837 -0.578946 -2.696960
H 8.987678 1.086388 -2.472917
H 9.086068 1.444358 -4.943879
H 9.574383 -0.242666 -5.180576
H 11.071012 1.653311 -3.727188