20
H13 C5 N1 O1
C 1.078002 -0.138177 0.146237
O 2.431308 0.192177 0.044467
C 2.885017 0.492549 -1.258262
C 2.441349 1.881506 -1.699259
C 4.412672 0.326080 -1.255018
C 4.825478 -1.048771 -0.730725
N 4.930348 0.614605 -2.589953
H 0.883321 -0.438753 1.186042
H 0.809178 -0.984412 -0.516126
H 0.407356 0.707975 -0.094327
H 2.470239 -0.258272 -1.966779
H 2.816218 2.639687 -0.992821
H 1.344677 1.959551 -1.741413
H 2.839743 2.108951 -2.696542
H 4.815166 1.096329 -0.572388
H 4.413068 -1.844627 -1.374693
H 4.465441 -1.216730 0.293626
H 5.922923 -1.144721 -0.735145
H 4.649717 -0.136805 -3.223179
H 5.948870 0.577187 -2.568880