29
H16 C8 N1 O1 F3
C 2.538905 -0.796969 2.802231
C 2.285704 0.675585 2.485341
C 0.798546 1.017781 2.561955
C 2.910337 1.115859 1.140422
C 2.432032 0.291835 -0.050292
N 4.370459 1.049802 1.199976
C 5.011770 2.166998 1.859159
C 6.482846 1.862209 2.049090
O 7.077432 2.985383 2.718242
C 8.399278 3.073865 2.706476
F 9.002648 1.989024 3.213190
F 8.901068 3.242540 1.473241
F 8.760455 4.121304 3.435781
H 2.248243 -1.030262 3.838758
H 3.604443 -1.044438 2.682914
H 1.957421 -1.460600 2.141321
H 2.790853 1.271907 3.265067
H 0.205804 0.425038 1.846188
H 0.617150 2.083350 2.346969
H 0.401051 0.807829 3.567464
H 2.583800 2.165042 0.970976
H 2.800361 -0.744246 0.010521
H 2.804446 0.725988 -0.991847
H 1.334534 0.264996 -0.108584
H 4.738108 0.972470 0.253649
H 4.559065 2.319947 2.851085
H 4.907074 3.124641 1.308139
H 6.978045 1.708505 1.077034
H 6.615419 0.958488 2.662362