24
H12 C7 N1 O1 F3
C 0.941846 -0.003544 0.161066
C 2.430136 -0.186025 -0.088444
O 3.183721 0.900999 0.422532
C 2.955014 -1.503213 0.472587
N 4.365327 -1.653552 0.169944
C 4.966355 -2.800442 0.765467
C 6.198592 -3.379566 0.142236
C 4.881285 -4.087169 -0.011420
C 4.609959 -5.370878 0.692981
F 5.208958 -5.446320 1.891814
F 3.295504 -5.550668 0.905773
F 5.028826 -6.432431 -0.014980
H 0.602426 0.960138 -0.246403
H 0.722198 -0.017727 1.242002
H 0.358724 -0.806691 -0.314315
H 2.623894 -0.182113 -1.173816
H 2.974409 0.981547 1.362436
H 2.395473 -2.344158 0.029341
H 2.748017 -1.527978 1.566514
H 4.852094 -0.808111 0.464623
H 4.888995 -2.907904 1.859182
H 6.946458 -3.819875 0.805751
H 6.588913 -2.889095 -0.751864
H 4.389709 -4.036192 -0.986329