35
H22 C11 N1 F1
C 0.705322 -0.138019 -0.063889
N 2.076148 0.193864 0.265127
C 2.266403 1.623126 0.454860
C 2.439014 2.376631 -0.861355
C 2.632664 3.874991 -0.654453
C 2.816558 4.611944 -1.961049
F 2.987759 5.970867 -1.726290
C 2.605624 -0.654561 1.311711
C 2.324287 -0.383186 2.816981
C 3.791199 -0.792715 3.128921
C 3.897374 -2.243910 3.591615
C 4.551919 0.133528 4.067426
C 4.115626 -0.633469 1.616005
H 0.356078 0.458147 -0.920281
H -0.000974 0.043462 0.776386
H 0.625634 -1.199247 -0.346889
H 3.167930 1.790066 1.063291
H 1.426042 2.071980 1.028377
H 1.561796 2.208487 -1.508859
H 3.306742 1.951288 -1.393579
H 3.514315 4.058798 -0.017159
H 1.760949 4.300049 -0.128722
H 1.936925 4.491190 -2.614649
H 3.705736 4.248855 -2.502280
H 2.301646 -1.683858 1.066681
H 1.526165 -0.966839 3.302556
H 2.152956 0.685400 3.018752
H 3.479602 -2.364479 4.604846
H 4.949608 -2.572310 3.617506
H 3.350305 -2.926002 2.921115
H 4.152325 0.073027 5.093668
H 4.478541 1.182465 3.738466
H 5.621406 -0.133392 4.106800
H 4.728414 -1.418406 1.144986
H 4.576332 0.342639 1.401738