18
H10 C6 N2
C 0.964323 -0.059947 -0.011544
C 2.472169 -0.285592 -0.101068
C 2.755927 -1.631182 -0.647463
N 2.982565 -2.682789 -1.070389
N 3.098460 0.714277 -0.948634
C 4.533016 0.756996 -0.880077
C 5.230317 2.078394 -0.902572
C 5.252683 1.244791 0.355177
H 0.487013 -0.835594 0.602636
H 0.512695 -0.064938 -1.014098
H 0.775499 0.917020 0.457285
H 2.894046 -0.292084 0.925258
H 2.696200 1.624039 -0.732452
H 5.017240 -0.059225 -1.428619
H 4.603984 2.976113 -0.900859
H 6.147217 2.167959 -1.490520
H 4.632633 1.585478 1.190237
H 6.187703 0.756863 0.643620