22
H13 C6 N1 O2
C 1.454916 0.231926 -0.505726
C 2.711788 -0.131986 0.280049
C 2.524182 0.013610 1.787689
N 3.192095 -1.476379 -0.070425
C 2.426597 -2.629782 0.370508
C 4.378728 -1.613499 -0.694843
O 5.087316 -0.670855 -1.047197
C 4.891472 -3.023462 -0.991084
O 6.147078 -2.937428 -1.577785
H 1.168383 1.273345 -0.294703
H 0.600116 -0.408418 -0.235126
H 1.630102 0.137184 -1.588072
H 3.518675 0.541613 -0.034371
H 1.704454 -0.618891 2.163587
H 2.277757 1.057418 2.033678
H 3.445587 -0.256141 2.326149
H 1.383600 -2.332909 0.535874
H 2.816618 -3.052081 1.311073
H 2.417879 -3.418569 -0.393555
H 4.166648 -3.532178 -1.655910
H 4.922544 -3.603803 -0.049873
H 6.298043 -1.977455 -1.655140