19
H11 C7 N1
C 1.132602 0.162071 0.025245
C 2.340334 0.105314 -0.032401
C 3.802775 0.016834 -0.112176
N 4.347096 -0.867091 0.903372
C 5.797977 -0.941435 0.870264
C 6.310413 -1.898545 1.916400
C 6.342276 -3.374761 1.620384
C 7.625738 -2.595617 1.720434
H 0.057644 0.218337 0.078353
H 4.221144 1.027526 0.034898
H 4.078738 -0.277108 -1.147568
H 3.965945 -1.803406 0.768957
H 6.200991 0.069170 1.059213
H 6.186477 -1.249634 -0.125494
H 6.053208 -1.618373 2.943355
H 6.020402 -3.697110 0.624932
H 6.093467 -4.070749 2.425802
H 8.174294 -2.395766 0.794887
H 8.259789 -2.753078 2.596841