18
H11 C5 N1 O1
C 1.084389 -0.002843 0.080755
N 2.521667 0.014177 0.108075
C 3.205970 1.105331 0.806473
C 4.265514 0.096801 1.292777
C 5.529340 0.068717 0.449699
O 6.328394 -1.062146 0.696547
C 3.230166 -0.980952 0.917882
H 0.705248 0.852176 -0.501511
H 0.629985 0.047586 1.095979
H 0.725178 -0.924307 -0.404576
H 2.613609 1.524386 1.644938
H 3.547931 1.938805 0.167094
H 4.525065 0.156884 2.360831
H 6.093762 1.009361 0.606759
H 5.253546 0.033089 -0.616885
H 6.612690 -1.026105 1.617570
H 2.644003 -1.321902 1.795419
H 3.599234 -1.867118 0.373315