31
H19 C9 N1 O2
C 1.100619 0.217278 -0.144167
O 2.443260 -0.167163 -0.254668
C 2.826222 -1.157306 0.657054
C 4.334121 -1.392341 0.608189
N 4.551495 -2.686217 1.242570
C 4.632556 -2.706541 2.713297
C 5.170074 -4.062600 3.168258
C 5.526002 -1.594132 3.253766
C 3.466412 -3.509548 0.695426
C 2.280233 -2.565832 0.344225
O 1.032074 -2.906323 0.903168
C 0.922712 -2.926237 2.298082
H 0.915985 1.012813 -0.880231
H 0.870620 0.613642 0.864340
H 0.406046 -0.617875 -0.345514
H 2.537018 -0.854461 1.683058
H 4.918192 -0.585635 1.064019
H 4.633613 -1.453633 -0.454290
H 3.626987 -2.572447 3.166389
H 6.192429 -4.211951 2.784379
H 4.550010 -4.898239 2.811373
H 5.197535 -4.119014 4.267342
H 6.507071 -1.603360 2.750827
H 5.693971 -1.746453 4.330254
H 5.083531 -0.594899 3.133828
H 3.157798 -4.298055 1.393581
H 3.809954 -4.013945 -0.222239
H 2.101703 -2.594728 -0.741866
H -0.100642 -3.249317 2.536969
H 1.079274 -1.933942 2.758162
H 1.621597 -3.639588 2.772758